
-------------------------------------------------------------------------
|    ___ _   _ ___                                                      |
|   / __| | | |_  )   Release 7.2.0 "Blackbird"                         |
|   \__ \ |_| |/ /                                                      |
|   |___/\___//___|   Suite (Computational Fluid Dynamics Code)         |
|                                                                       |
-------------------------------------------------------------------------
| SU2 Project Website: https://su2code.github.io                        |
|                                                                       |
| The SU2 Project is maintained by the SU2 Foundation                   |
| (http://su2foundation.org)                                            |
-------------------------------------------------------------------------
| Copyright 2012-2021, SU2 Contributors                                 |
|                                                                       |
| SU2 is free software; you can redistribute it and/or                  |
| modify it under the terms of the GNU Lesser General Public            |
| License as published by the Free Software Foundation; either          |
| version 2.1 of the License, or (at your option) any later version.    |
|                                                                       |
| SU2 is distributed in the hope that it will be useful,                |
| but WITHOUT ANY WARRANTY; without even the implied warranty of        |
| MERCHANTABILITY or FITNESS FOR A PARTICULAR PURPOSE. See the GNU      |
| Lesser General Public License for more details.                       |
|                                                                       |
| You should have received a copy of the GNU Lesser General Public      |
| License along with SU2. If not, see <http://www.gnu.org/licenses/>.   |
-------------------------------------------------------------------------

Parsing config file for zone 0

----------------- Physical Case Definition ( Zone 0 ) -------------------
Compressible RANS equations.
Turbulence model: Spalart Allmaras
Hybrid RANS/LES: No Hybrid RANS/LES
Mach number: 0.1.
Angle of attack (AoA): 10 deg, and angle of sideslip (AoS): 0 deg.
Reynolds number: 1.2322e+07. Reference length 6.
No restart solution, use the values at infinity (freestream).
Non-Dimensional simulation (V=1.0, Rho=1.0, T=1.0 at the farfield).
The reference area is 15.236 m^2.
The semi-span will be computed using the max y(3D) value.
The reference length is 6 m.
Reference origin for moment evaluation is (3, 0, 0).
Surface(s) where the force coefficients are evaluated: Rod1.

Surface(s) plotted in the output file: Rod1.
Input mesh file name: ../CurrRun.su2

--------------- Space Numerical Integration ( Zone 0 ) ------------------
Jameson-Schmidt-Turkel scheme (2nd order in space) for the flow inviscid terms.
JST viscous coefficients (2nd & 4th): 0.5, 0.02.
The method includes a grid stretching correction (p = 0.3).
Scalar upwind solver for the turbulence model.
First order integration in space.
Average of gradients with correction (viscous flow terms).
Average of gradients with correction (viscous turbulence terms).
Gradient for upwind reconstruction: Green-Gauss.
Gradient for viscous and source terms: Green-Gauss.

--------------- Time Numerical Integration  ( Zone 0 ) ------------------
Local time stepping (steady state simulation).
Euler implicit method for the flow equations.
FGMRES is used for solving the linear system.
Using a ILU(0) preconditioning.
Convergence criteria of the linear solver: 1e-10.
Max number of linear iterations: 10.
No CFL adaptation.
Courant-Friedrichs-Lewy number:      100
Euler implicit time integration for the turbulence model.

------------------ Convergence Criteria  ( Zone 0 ) ---------------------
Maximum number of solver subiterations: 999999.
Begin convergence monitoring at iteration 10.
Residual minimum value: 1e-14.
Cauchy series min. value: 1e-06.
Number of Cauchy elements: 100.
Begin windowed time average at iteration 0.

-------------------- Output Information ( Zone 0 ) ----------------------
Writing solution files every 250 iterations.
Writing the convergence history file every 1 inner iterations.
Writing the screen convergence history every 1 inner iterations.
The tabular file format is CSV (.csv).
Convergence history file name: history.
Forces breakdown file name: forces_breakdown.dat.
Surface file name: surface_flow.
Volume file name: flow.
Restart file name: restart_flow.dat.

------------- Config File Boundary Information ( Zone 0 ) ---------------
+-----------------------------------------------------------------------+
|                        Marker Type|                        Marker Name|
+-----------------------------------------------------------------------+
|                          Far-field|                                Far|
+-----------------------------------------------------------------------+
|                     Symmetry plane|                                Sym|
+-----------------------------------------------------------------------+
|                     Heat flux wall|                               Rod1|
+-----------------------------------------------------------------------+

-------------------- Output Preprocessing ( Zone 0 ) --------------------

WARNING: SURFACE_PRESSURE_DROP can only be computed for 2 surfaces (outlet, inlet)

Screen output fields: INNER_ITER, WALL_TIME, RMS_DENSITY, RMS_NU_TILDE, LIFT, DRAG
History output group(s): ITER, RMS_RES
Convergence field(s): DRAG
Warning: No (valid) fields chosen for time convergence monitoring. Time convergence monitoring inactive.
Volume output fields: COORDINATES, SOLUTION, PRIMITIVE

------------------- Geometry Preprocessing ( Zone 0 ) -------------------
Three dimensional problem.
2080172 grid points before partitioning.
3342742 volume elements before partitioning.
3 surface markers.
2048 boundary elements in index 0 (Marker = Far).
88331 boundary elements in index 1 (Marker = Rod1).
39749 boundary elements in index 2 (Marker = Sym).
Executing the partitioning functions.
Building the graph adjacency structure.
Calling ParMETIS... graph partitioning complete (138337 edge cuts).
Distributing ParMETIS coloring.
Rebalancing vertices.
Rebalancing volume element connectivity.
Rebalancing markers and surface elements.
2284981 vertices including ghost points. 
3503792 interior elements including halo cells. 
887803 tetrahedra.
1435108 hexahedra.
888848 prisms.
292033 pyramids.
Establishing MPI communication patterns.
Setting point connectivity.
Renumbering points (Reverse Cuthill McKee Ordering).
Recomputing point connectivity.
Setting element connectivity.
Checking the numerical grid orientation.
There has been a re-orientation of 888848 PRISM volume elements.
All surface elements are correctly orientend.
Identifying edges and vertices.
Setting the control volume structure.
Volume of the computational grid: 56404.6.
Searching for the closest normal neighbors to the surfaces.
Storing a mapping from global to local point index.
Compute the surface curvature.
Max K: 3720. Mean K: 17.6999. Standard deviation K: 131.623.
Checking for periodicity.
Computing mesh quality statistics for the dual control volumes.
+--------------------------------------------------------------+
|           Mesh Quality Metric|        Minimum|        Maximum|
+--------------------------------------------------------------+
|    Orthogonality Angle (deg.)|        54.4831|             90|
|     CV Face Area Aspect Ratio|        1.05246|        656.498|
|           CV Sub-Volume Ratio|              1|        517.569|
+--------------------------------------------------------------+
Finding max control volume width.
Communicating number of neighbors.
Semi-span length = 0.615055 m.
Wetted area = 9.03346 m^2.
Area projection in the x-plane = 0.225043 m^2, y-plane = 0.0178722 m^2, z-plane = 3.74685 m^2.
Max. coordinate in the x-direction = 3.08921 m, y-direction = 0.615055 m, z-direction = 0.175726 m.
Min. coordinate in the x-direction = -3.00679 m, y-direction = -1.11022e-16 m, z-direction = -0.190169 m.
Checking if Euler & Symmetry markers are straight/plane:
Boundary marker Sym is NOT a single plane.
Computing wall distances.

-------------------- Solver Preprocessing ( Zone 0 ) --------------------
Viscous flow: Computing pressure using the ideal gas law
based on the free-stream temperature and a density computed
from the Reynolds number.
Force coefficients computed using free-stream values.

-- Models:
+------------------------------------------------------------------------------+
|          Viscosity Model|        Conductivity Model|              Fluid Model|
+------------------------------------------------------------------------------+
|               SUTHERLAND|          CONSTANT_PRANDTL|             STANDARD_AIR|
+------------------------------------------------------------------------------+
-- Fluid properties:
+------------------------------------------------------------------------------+
|                  Name|    Dim. value|    Ref. value|      Unit|Non-dim. value|
+------------------------------------------------------------------------------+
|        Ref. Viscosity|     1.716e-05|       36.7462|   N.s/m^2|   4.66987e-07|
|      Sutherland Temp.|        273.15|        288.15|         K|      0.947944|
|     Sutherland Const.|         110.4|        288.15|         K|      0.383134|
+------------------------------------------------------------------------------+
|        Prandtl (Lam.)|             -|             -|         -|          0.72|
|       Prandtl (Turb.)|             -|             -|         -|           0.9|
+------------------------------------------------------------------------------+
|          Gas Constant|       287.058|       4.01881|  N.m/kg.K|       71.4286|
|      Spec. Heat Ratio|             -|             -|         -|           1.4|
+------------------------------------------------------------------------------+
-- Initial and free-stream conditions:
+------------------------------------------------------------------------------+
|                  Name|    Dim. value|    Ref. value|      Unit|Non-dim. value|
+------------------------------------------------------------------------------+
|       Static Pressure|       89318.8|       1250.46|        Pa|       71.4286|
|               Density|       1.07983|       1.07983|    kg/m^3|             1|
|           Temperature|        288.15|        288.15|         K|             1|
|          Total Energy|        207368|       1158.02|   m^2/s^2|       179.071|
|            Velocity-X|       33.5127|       34.0297|       m/s|      0.984808|
|            Velocity-Y|             0|       34.0297|       m/s|             0|
|            Velocity-Z|        5.9092|       34.0297|       m/s|      0.173648|
|    Velocity Magnitude|       34.0297|       34.0297|       m/s|             1|
+------------------------------------------------------------------------------+
|             Viscosity|    1.7893e-05|       36.7462|   N.s/m^2|   4.86934e-07|
|          Conductivity|             -|       147.676|   W/m^2.K|             -|
|     Turb. Kin. Energy|       4.34258|       1158.02|   m^2/s^2|       0.00375|
|     Spec. Dissipation|       26207.1|       34.0297|       1/s|       770.125|
+------------------------------------------------------------------------------+
|           Mach Number|             -|             -|         -|           0.1|
|       Reynolds Number|             -|             -|         -|    1.2322e+07|
+------------------------------------------------------------------------------+
Initialize Jacobian structure (Navier-Stokes). MG level: 0.
Initialize Jacobian structure (SA model).

------------------- Numerics Preprocessing ( Zone 0 ) -------------------

----------------- Integration Preprocessing ( Zone 0 ) ------------------

------------------- Iteration Preprocessing ( Zone 0 ) ------------------
Euler/Navier-Stokes/RANS fluid iteration.

------------------------------ Begin Solver -----------------------------

Simulation Run using the Single-zone Driver
WARNING: SU2 was not compiled for an AVX-capable architecture.
+-----------------------------------------------------------------------------+
|  Inner_Iter|   Time(sec)|    rms[Rho]|     rms[nu]|          CL|          CD|
+-----------------------------------------------------------------------------+
|           0|  1.9819e+00|   -5.350314|  -11.097875|    2.910799|    0.695065|
|           1|  1.8885e+00|   -5.330886|  -10.853660|    1.615683|    0.369432|
|           2|  1.8494e+00|   -5.212374|  -10.687236|    0.656497|    0.141445|
|           3|  1.8419e+00|   -5.248623|  -10.590124|   -0.008126|   -0.003449|
|           4|  1.8305e+00|   -5.217563|  -10.563662|   -0.323050|   -0.064307|
|           5|  1.8212e+00|   -5.229459|  -10.570041|   -0.282175|   -0.051631|
|           6|  1.8159e+00|   -5.292061|  -10.570266|   -0.102551|   -0.014180|
|           7|  1.8104e+00|   -5.409670|  -10.572753|    0.093906|    0.023646|
|           8|  1.8097e+00|   -5.510712|  -10.583320|    0.168606|    0.036379|
|           9|  1.8125e+00|   -5.596858|  -10.597236|    0.133583|    0.028373|
|          10|  1.8124e+00|   -5.714231|  -10.612978|    0.049497|    0.011819|
|          11|  1.8093e+00|   -5.820099|  -10.632292|   -0.018663|   -0.001002|
|          12|  1.8095e+00|   -5.874247|  -10.656437|   -0.030415|   -0.002971|
|          13|  1.8071e+00|   -5.925827|  -10.684129|   -0.006700|    0.001600|
|          14|  1.8049e+00|   -5.988394|  -10.714084|    0.025758|    0.007634|
|          15|  1.8033e+00|   -6.039453|  -10.745875|    0.047441|    0.011530|
|          16|  1.8017e+00|   -6.071624|  -10.779045|    0.048909|    0.011626|
|          17|  1.8023e+00|   -6.102394|  -10.812998|    0.036876|    0.009242|
|          18|  1.8023e+00|   -6.127963|  -10.847852|    0.022537|    0.006482|
|          19|  1.8011e+00|   -6.144882|  -10.883769|    0.016328|    0.005268|
|          20|  1.8036e+00|   -6.163672|  -10.920970|    0.018505|    0.005617|
|          21|  2.2522e+00|   -6.188916|  -10.959465|    0.024353|    0.006643|
|          22|  2.2313e+00|   -6.217641|  -10.998868|    0.029380|    0.007513|
|          23|  2.2126e+00|   -6.246592|  -11.039013|    0.031119|    0.007775|
|          24|  2.1950e+00|   -6.276359|  -11.079642|    0.029843|    0.007482|
|          25|  2.1787e+00|   -6.307494|  -11.120501|    0.027456|    0.006987|
|          26|  2.1642e+00|   -6.339564|  -11.161333|    0.025870|    0.006641|
|          27|  2.1501e+00|   -6.372656|  -11.201442|    0.025734|    0.006564|
|          28|  2.1371e+00|   -6.406629|  -11.240234|    0.026572|    0.006670|
|          29|  2.1257e+00|   -6.440440|  -11.277578|    0.027535|    0.006803|
|          30|  2.1145e+00|   -6.473120|  -11.313393|    0.028031|    0.006853|
|          31|  2.1046e+00|   -6.504676|  -11.346996|    0.027948|    0.006799|
|          32|  2.0948e+00|   -6.535701|  -11.378148|    0.027540|    0.006687|
|          33|  2.0859e+00|   -6.566811|  -11.406988|    0.027153|    0.006579|
|          34|  2.0775e+00|   -6.598536|  -11.433674|    0.026988|    0.006512|
|          35|  2.0699e+00|   -6.631171|  -11.458407|    0.027041|    0.006487|
|          36|  2.0627e+00|   -6.664640|  -11.481509|    0.027188|    0.006481|
|          37|  2.0574e+00|   -6.698569|  -11.503281|    0.027302|    0.006472|
|          38|  2.0512e+00|   -6.732495|  -11.523990|    0.027323|    0.006447|
|          39|  2.0447e+00|   -6.766013|  -11.543853|    0.027270|    0.006410|
|          40|  2.0392e+00|   -6.798875|  -11.562970|    0.027198|    0.006370|
|          41|  2.0328e+00|   -6.831049|  -11.581429|    0.027152|    0.006336|
|          42|  2.0267e+00|   -6.862678|  -11.599217|    0.027149|    0.006310|
|          43|  2.0213e+00|   -6.893949|  -11.616277|    0.027177|    0.006291|
|          44|  2.0157e+00|   -6.924991|  -11.632495|    0.027213|    0.006274|
|          45|  2.0104e+00|   -6.955841|  -11.647689|    0.027240|    0.006257|
|          46|  2.0054e+00|   -6.986464|  -11.661685|    0.027256|    0.006239|
|          47|  2.0005e+00|   -7.016801|  -11.674333|    0.027267|    0.006220|
|          48|  1.9958e+00|   -7.046806|  -11.685541|    0.027281|    0.006202|
|          49|  1.9913e+00|   -7.076454|  -11.695274|    0.027303|    0.006186|
|          50|  1.9870e+00|   -7.105732|  -11.703560|    0.027334|    0.006172|
|          51|  1.9831e+00|   -7.134620|  -11.710456|    0.027371|    0.006159|
|          52|  1.9793e+00|   -7.163073|  -11.716079|    0.027409|    0.006147|
|          53|  1.9760e+00|   -7.190997|  -11.720551|    0.027446|    0.006136|
|          54|  1.9734e+00|   -7.218234|  -11.724020|    0.027481|    0.006124|
|          55|  2.1360e+00|   -7.244598|  -11.726623|    0.027515|    0.006113|
|          56|  2.1302e+00|   -7.269930|  -11.728497|    0.027549|    0.006102|
|          57|  2.1243e+00|   -7.294162|  -11.729756|    0.027584|    0.006091|
|          58|  2.1189e+00|   -7.317310|  -11.730506|    0.027620|    0.006081|
|          59|  2.1134e+00|   -7.339432|  -11.730825|    0.027655|    0.006071|
|          60|  2.1081e+00|   -7.360557|  -11.730789|    0.027690|    0.006062|
|          61|  2.1027e+00|   -7.380684|  -11.730450|    0.027723|    0.006053|
|          62|  2.0974e+00|   -7.399823|  -11.729864|    0.027754|    0.006044|
|          63|  2.0925e+00|   -7.418034|  -11.729057|    0.027785|    0.006035|
|          64|  2.0876e+00|   -7.435429|  -11.728069|    0.027816|    0.006027|
|          65|  2.0836e+00|   -7.452137|  -11.726914|    0.027846|    0.006018|
|          66|  2.0796e+00|   -7.468292|  -11.725618|    0.027876|    0.006010|
|          67|  2.0753e+00|   -7.484051|  -11.724190|    0.027905|    0.006003|
|          68|  2.0709e+00|   -7.499611|  -11.722648|    0.027934|    0.005996|
|          69|  2.0671e+00|   -7.515151|  -11.720993|    0.027962|    0.005988|
|          70|  2.0633e+00|   -7.530760|  -11.719235|    0.027990|    0.005982|
|          71|  2.0595e+00|   -7.546406|  -11.717372|    0.028018|    0.005975|
|          72|  2.0556e+00|   -7.561995|  -11.715413|    0.028046|    0.005969|
|          73|  2.0522e+00|   -7.577419|  -11.713351|    0.028073|    0.005963|
|          74|  2.0487e+00|   -7.592577|  -11.711197|    0.028101|    0.005957|
|          75|  2.0457e+00|   -7.607366|  -11.708944|    0.028130|    0.005951|
|          76|  2.0421e+00|   -7.621670|  -11.706600|    0.028158|    0.005946|
|          77|  2.0389e+00|   -7.635407|  -11.704161|    0.028186|    0.005941|
|          78|  2.0359e+00|   -7.648572|  -11.701637|    0.028215|    0.005936|
|          79|  2.0326e+00|   -7.661220|  -11.699027|    0.028243|    0.005931|
|          80|  2.0300e+00|   -7.673414|  -11.696344|    0.028272|    0.005927|
|          81|  2.0270e+00|   -7.685183|  -11.693593|    0.028301|    0.005923|
|          82|  2.0242e+00|   -7.696538|  -11.690794|    0.028331|    0.005919|
|          83|  2.0218e+00|   -7.707497|  -11.687958|    0.028360|    0.005915|
|          84|  2.0188e+00|   -7.718076|  -11.685107|    0.028389|    0.005911|
|          85|  2.0161e+00|   -7.728267|  -11.682251|    0.028419|    0.005908|
|          86|  2.0133e+00|   -7.738019|  -11.679411|    0.028448|    0.005904|
|          87|  2.0106e+00|   -7.747274|  -11.676591|    0.028477|    0.005901|
|          88|  2.0081e+00|   -7.756006|  -11.673800|    0.028507|    0.005898|
|          89|  2.0056e+00|   -7.764234|  -11.671032|    0.028536|    0.005895|
|          90|  2.0031e+00|   -7.771990|  -11.668281|    0.028565|    0.005892|
|          91|  2.0009e+00|   -7.779307|  -11.665529|    0.028593|    0.005890|
|          92|  1.9984e+00|   -7.786229|  -11.662767|    0.028622|    0.005887|
|          93|  1.9962e+00|   -7.792827|  -11.659973|    0.028650|    0.005885|
|          94|  1.9940e+00|   -7.799187|  -11.657129|    0.028678|    0.005883|
|          95|  1.9919e+00|   -7.805382|  -11.654213|    0.028706|    0.005880|
|          96|  1.9899e+00|   -7.811457|  -11.651210|    0.028734|    0.005878|
|          97|  1.9881e+00|   -7.817446|  -11.648103|    0.028762|    0.005876|
|          98|  1.9863e+00|   -7.823369|  -11.644885|    0.028789|    0.005874|
|          99|  1.9848e+00|   -7.829245|  -11.641542|    0.028817|    0.005872|
|         100|  1.9833e+00|   -7.835072|  -11.638073|    0.028844|    0.005870|
|         101|  1.9813e+00|   -7.840835|  -11.634476|    0.028871|    0.005869|
|         102|  1.9797e+00|   -7.846504|  -11.630753|    0.028898|    0.005867|
|         103|  1.9778e+00|   -7.852054|  -11.626907|    0.028925|    0.005865|
|         104|  1.9759e+00|   -7.857463|  -11.622948|    0.028951|    0.005864|
|         105|  1.9741e+00|   -7.862709|  -11.618881|    0.028978|    0.005862|
|         106|  1.9722e+00|   -7.867767|  -11.614715|    0.029005|    0.005861|
|         107|  1.9704e+00|   -7.872619|  -11.610453|    0.029031|    0.005859|
|         108|  1.9686e+00|   -7.877254|  -11.606105|    0.029057|    0.005858|
|         109|  1.9668e+00|   -7.881674|  -11.601672|    0.029083|    0.005857|
|         110|  1.9650e+00|   -7.885878|  -11.597158|    0.029109|    0.005855|
|         111|  1.9634e+00|   -7.889874|  -11.592563|    0.029134|    0.005854|
|         112|  1.9618e+00|   -7.893664|  -11.587893|    0.029160|    0.005853|
|         113|  1.9603e+00|   -7.897264|  -11.583147|    0.029185|    0.005851|
|         114|  1.9588e+00|   -7.900679|  -11.578328|    0.029210|    0.005850|
|         115|  1.9574e+00|   -7.903927|  -11.573437|    0.029235|    0.005849|
|         116|  1.9562e+00|   -7.907013|  -11.568477|    0.029259|    0.005848|
|         117|  1.9552e+00|   -7.909953|  -11.563447|    0.029284|    0.005847|
|         118|  1.9555e+00|   -7.912749|  -11.558350|    0.029308|    0.005845|
|         119|  1.9556e+00|   -7.915421|  -11.553185|    0.029331|    0.005844|
|         120|  1.9545e+00|   -7.917968|  -11.547956|    0.029355|    0.005843|
|         121|  1.9530e+00|   -7.920407|  -11.542658|    0.029378|    0.005842|
|         122|  1.9517e+00|   -7.922733|  -11.537295|    0.029401|    0.005841|
|         123|  1.9505e+00|   -7.924966|  -11.531864|    0.029424|    0.005840|
|         124|  1.9492e+00|   -7.927096|  -11.526366|    0.029446|    0.005838|
|         125|  1.9484e+00|   -7.929143|  -11.520799|    0.029468|    0.005837|
|         126|  1.9471e+00|   -7.931095|  -11.515165|    0.029490|    0.005836|
|         127|  1.9458e+00|   -7.932971|  -11.509461|    0.029512|    0.005835|
|         128|  1.9445e+00|   -7.934758|  -11.503690|    0.029534|    0.005834|
|         129|  1.9432e+00|   -7.936476|  -11.497850|    0.029555|    0.005833|
|         130|  1.9420e+00|   -7.938109|  -11.491943|    0.029577|    0.005832|
|         131|  1.9407e+00|   -7.939679|  -11.485970|    0.029597|    0.005831|
|         132|  1.9397e+00|   -7.941168|  -11.479933|    0.029618|    0.005829|
|         133|  1.9388e+00|   -7.942598|  -11.473830|    0.029639|    0.005828|
|         134|  1.9377e+00|   -7.943950|  -11.467666|    0.029659|    0.005827|
|         135|  1.9365e+00|   -7.945244|  -11.461442|    0.029680|    0.005826|
|         136|  1.9354e+00|   -7.946462|  -11.455160|    0.029700|    0.005825|
|         137|  1.9344e+00|   -7.947622|  -11.448821|    0.029720|    0.005824|
|         138|  1.9335e+00|   -7.948705|  -11.442427|    0.029739|    0.005823|
|         139|  1.9323e+00|   -7.949729|  -11.435980|    0.029759|    0.005822|
|         140|  1.9314e+00|   -7.950676|  -11.429483|    0.029778|    0.005821|
|         141|  1.9304e+00|   -7.951562|  -11.422936|    0.029797|    0.005819|
|         142|  1.9297e+00|   -7.952370|  -11.416341|    0.029816|    0.005818|
|         143|  1.9286e+00|   -7.953118|  -11.409699|    0.029835|    0.005817|
|         144|  1.9277e+00|   -7.953788|  -11.403014|    0.029854|    0.005816|
|         145|  1.9268e+00|   -7.954397|  -11.396284|    0.029873|    0.005815|
|         146|  1.9258e+00|   -7.954933|  -11.389512|    0.029891|    0.005814|
|         147|  1.9250e+00|   -7.955412|  -11.382699|    0.029909|    0.005813|
|         148|  1.9240e+00|   -7.955824|  -11.375848|    0.029927|    0.005812|
|         149|  1.9231e+00|   -7.956183|  -11.368959|    0.029945|    0.005811|
|         150|  1.9224e+00|   -7.956481|  -11.362035|    0.029963|    0.005810|
|         151|  1.9214e+00|   -7.956732|  -11.355077|    0.029980|    0.005809|
|         152|  1.9206e+00|   -7.956932|  -11.348087|    0.029998|    0.005808|
|         153|  1.9196e+00|   -7.957092|  -11.341067|    0.030015|    0.005807|
|         154|  1.9187e+00|   -7.957212|  -11.334019|    0.030032|    0.005805|
|         155|  1.9178e+00|   -7.957302|  -11.326946|    0.030049|    0.005804|
|         156|  1.9170e+00|   -7.957363|  -11.319852|    0.030066|    0.005803|
|         157|  1.9161e+00|   -7.957401|  -11.312736|    0.030083|    0.005802|
|         158|  1.9154e+00|   -7.957417|  -11.305603|    0.030099|    0.005801|
|         159|  1.9146e+00|   -7.957416|  -11.298452|    0.030115|    0.005800|
|         160|  1.9139e+00|   -7.957399|  -11.291288|    0.030132|    0.005799|
|         161|  1.9131e+00|   -7.957368|  -11.284114|    0.030148|    0.005798|
|         162|  1.9123e+00|   -7.957325|  -11.276934|    0.030164|    0.005797|
|         163|  1.9116e+00|   -7.957269|  -11.269748|    0.030179|    0.005796|
|         164|  1.9110e+00|   -7.957203|  -11.262562|    0.030195|    0.005795|
|         165|  1.9104e+00|   -7.957124|  -11.255378|    0.030210|    0.005794|
|         166|  1.9106e+00|   -7.957033|  -11.248197|    0.030226|    0.005793|
|         167|  1.9100e+00|   -7.956929|  -11.241022|    0.030241|    0.005792|
|         168|  1.9092e+00|   -7.956811|  -11.233858|    0.030256|    0.005791|
|         169|  1.9086e+00|   -7.956678|  -11.226705|    0.030270|    0.005789|
|         170|  1.9079e+00|   -7.956528|  -11.219567|    0.030285|    0.005788|
|         171|  1.9071e+00|   -7.956359|  -11.212446|    0.030300|    0.005787|
|         172|  1.9064e+00|   -7.956172|  -11.205345|    0.030314|    0.005786|
|         173|  1.9056e+00|   -7.955963|  -11.198268|    0.030328|    0.005785|
|         174|  1.9048e+00|   -7.955734|  -11.191219|    0.030342|    0.005784|
|         175|  1.9041e+00|   -7.955484|  -11.184198|    0.030356|    0.005783|
|         176|  1.9033e+00|   -7.955212|  -11.177210|    0.030370|    0.005782|
|         177|  1.9026e+00|   -7.954918|  -11.170258|    0.030383|    0.005781|
|         178|  1.9020e+00|   -7.954602|  -11.163343|    0.030396|    0.005780|
|         179|  1.9013e+00|   -7.954263|  -11.156468|    0.030410|    0.005779|
|         180|  1.9007e+00|   -7.953906|  -11.149638|    0.030423|    0.005778|
|         181|  1.9001e+00|   -7.953526|  -11.142853|    0.030436|    0.005776|
|         182|  1.8996e+00|   -7.953129|  -11.136116|    0.030449|    0.005775|
|         183|  1.8993e+00|   -7.952712|  -11.129429|    0.030461|    0.005774|
|         184|  1.8987e+00|   -7.952279|  -11.122797|    0.030474|    0.005773|
|         185|  1.8981e+00|   -7.951828|  -11.116219|    0.030486|    0.005772|
|         186|  1.8975e+00|   -7.951362|  -11.109699|    0.030498|    0.005771|
|         187|  1.8971e+00|   -7.950879|  -11.103237|    0.030510|    0.005770|
|         188|  1.8964e+00|   -7.950382|  -11.096837|    0.030522|    0.005769|
|         189|  1.8958e+00|   -7.949867|  -11.090499|    0.030534|    0.005768|
|         190|  1.8954e+00|   -7.949337|  -11.084225|    0.030546|    0.005767|
|         191|  1.8948e+00|   -7.948787|  -11.078016|    0.030558|    0.005766|
|         192|  1.8944e+00|   -7.948221|  -11.071872|    0.030569|    0.005765|
|         193|  1.8938e+00|   -7.947631|  -11.065794|    0.030581|    0.005763|
|         194|  1.8933e+00|   -7.947021|  -11.059784|    0.030592|    0.005762|
|         195|  1.8927e+00|   -7.946385|  -11.053843|    0.030603|    0.005761|
|         196|  1.8921e+00|   -7.945728|  -11.047971|    0.030614|    0.005760|
|         197|  1.8915e+00|   -7.945042|  -11.042169|    0.030625|    0.005759|
|         198|  1.8909e+00|   -7.944331|  -11.036439|    0.030636|    0.005758|
|         199|  1.8905e+00|   -7.943588|  -11.030780|    0.030647|    0.005757|
|         200|  1.8903e+00|   -7.942820|  -11.025194|    0.030658|    0.005756|
|         201|  1.8898e+00|   -7.942020|  -11.019680|    0.030668|    0.005755|
|         202|  1.8892e+00|   -7.941192|  -11.014239|    0.030679|    0.005754|
|         203|  1.8887e+00|   -7.940333|  -11.008871|    0.030689|    0.005753|
|         204|  1.8883e+00|   -7.939448|  -11.003576|    0.030700|    0.005752|
|         205|  1.8879e+00|   -7.938537|  -10.998354|    0.030710|    0.005751|
|         206|  1.8873e+00|   -7.937603|  -10.993205|    0.030720|    0.005750|
|         207|  1.8869e+00|   -7.936649|  -10.988128|    0.030731|    0.005749|
|         208|  1.8865e+00|   -7.935679|  -10.983124|    0.030741|    0.005748|
|         209|  1.8861e+00|   -7.934695|  -10.978190|    0.030751|    0.005748|
|         210|  1.8857e+00|   -7.933703|  -10.973328|    0.030761|    0.005747|
|         211|  1.8852e+00|   -7.932707|  -10.968536|    0.030770|    0.005746|
|         212|  1.8849e+00|   -7.931711|  -10.963814|    0.030780|    0.005745|
|         213|  1.8843e+00|   -7.930720|  -10.959162|    0.030790|    0.005744|
|         214|  1.8840e+00|   -7.929737|  -10.954578|    0.030800|    0.005743|
|         215|  1.8835e+00|   -7.928770|  -10.950060|    0.030809|    0.005742|
|         216|  1.8832e+00|   -7.927823|  -10.945608|    0.030819|    0.005741|
|         217|  1.8828e+00|   -7.926905|  -10.941224|    0.030829|    0.005741|
|         218|  1.8823e+00|   -7.926018|  -10.936905|    0.030838|    0.005740|
|         219|  1.8818e+00|   -7.925171|  -10.932651|    0.030848|    0.005739|
|         220|  1.8813e+00|   -7.924365|  -10.928461|    0.030857|    0.005738|
|         221|  1.8809e+00|   -7.923609|  -10.924334|    0.030866|    0.005738|
|         222|  1.8804e+00|   -7.922906|  -10.920268|    0.030876|    0.005737|
|         223|  1.9191e+00|   -7.922263|  -10.916264|    0.030885|    0.005736|
|         224|  1.9185e+00|   -7.921680|  -10.912320|    0.030894|    0.005735|
|         225|  1.9180e+00|   -7.921166|  -10.908436|    0.030904|    0.005735|
|         226|  1.9174e+00|   -7.920720|  -10.904611|    0.030913|    0.005734|
|         227|  1.9170e+00|   -7.920352|  -10.900842|    0.030922|    0.005733|
|         228|  1.9168e+00|   -7.920060|  -10.897132|    0.030931|    0.005733|
|         229|  1.9163e+00|   -7.919854|  -10.893478|    0.030940|    0.005732|
|         230|  1.9158e+00|   -7.919730|  -10.889879|    0.030949|    0.005732|
|         231|  1.9152e+00|   -7.919698|  -10.886334|    0.030958|    0.005731|
|         232|  1.9148e+00|   -7.919754|  -10.882844|    0.030967|    0.005730|
|         233|  1.9142e+00|   -7.919905|  -10.879406|    0.030976|    0.005730|
|         234|  1.9136e+00|   -7.920149|  -10.876019|    0.030985|    0.005729|
|         235|  1.9130e+00|   -7.920492|  -10.872682|    0.030994|    0.005729|
|         236|  1.9124e+00|   -7.920929|  -10.869394|    0.031003|    0.005728|
|         237|  1.9119e+00|   -7.921468|  -10.866154|    0.031011|    0.005728|
|         238|  1.9114e+00|   -7.922102|  -10.862961|    0.031020|    0.005727|
|         239|  1.9108e+00|   -7.922840|  -10.859815|    0.031029|    0.005727|
|         240|  1.9102e+00|   -7.923675|  -10.856714|    0.031038|    0.005727|
|         241|  1.9097e+00|   -7.924616|  -10.853655|    0.031046|    0.005726|
|         242|  1.9092e+00|   -7.925654|  -10.850639|    0.031055|    0.005726|
|         243|  1.9087e+00|   -7.926798|  -10.847664|    0.031063|    0.005725|
|         244|  1.9084e+00|   -7.928040|  -10.844730|    0.031072|    0.005725|
|         245|  1.9081e+00|   -7.929389|  -10.841834|    0.031080|    0.005725|
|         246|  1.9079e+00|   -7.930837|  -10.838975|    0.031089|    0.005724|
|         247|  1.9074e+00|   -7.932391|  -10.836153|    0.031097|    0.005724|
|         248|  1.9074e+00|   -7.934045|  -10.833366|    0.031105|    0.005724|
|         249|  1.9080e+00|   -7.935806|  -10.830612|    0.031114|    0.005723|
|         250|  1.9075e+00|   -7.937668|  -10.827891|    0.031122|    0.005723|
+-----------------------------------------------------------------------+
|        File Writing Summary       |              Filename             |
+-----------------------------------------------------------------------+
|SU2 restart                        |restart_flow.dat                   |
|Paraview                           |flow.vtu                           |
|Paraview surface                   |surface_flow.vtu                   |
+-----------------------------------------------------------------------+
+-----------------------------------------------------------------------------+
|  Inner_Iter|   Time(sec)|    rms[Rho]|     rms[nu]|          CL|          CD|
+-----------------------------------------------------------------------------+
|         251|  1.9121e+00|   -7.939639|  -10.825202|    0.031130|    0.005723|
|         252|  1.9116e+00|   -7.941712|  -10.822544|    0.031138|    0.005722|
|         253|  1.9112e+00|   -7.943895|  -10.819914|    0.031146|    0.005722|
|         254|  1.9107e+00|   -7.946181|  -10.817313|    0.031154|    0.005722|
|         255|  1.9102e+00|   -7.948578|  -10.814738|    0.031162|    0.005722|
|         256|  1.9454e+00|   -7.951080|  -10.812188|    0.031170|    0.005721|
|         257|  1.9448e+00|   -7.953693|  -10.809661|    0.031178|    0.005721|
|         258|  1.9442e+00|   -7.956412|  -10.807156|    0.031186|    0.005721|
|         259|  1.9436e+00|   -7.959243|  -10.804671|    0.031194|    0.005721|
|         260|  1.9430e+00|   -7.962181|  -10.802205|    0.031201|    0.005721|
|         261|  1.9425e+00|   -7.965231|  -10.799756|    0.031209|    0.005720|
|         262|  1.9419e+00|   -7.968387|  -10.797323|    0.031217|    0.005720|
|         263|  1.9413e+00|   -7.971653|  -10.794903|    0.031224|    0.005720|
|         264|  1.9408e+00|   -7.975027|  -10.792496|    0.031231|    0.005720|
|         265|  1.9402e+00|   -7.978512|  -10.790098|    0.031239|    0.005720|
|         266|  1.9398e+00|   -7.982103|  -10.787709|    0.031246|    0.005720|
|         267|  1.9392e+00|   -7.985803|  -10.785327|    0.031253|    0.005720|
|         268|  1.9386e+00|   -7.989606|  -10.782950|    0.031261|    0.005719|
|         269|  1.9380e+00|   -7.993517|  -10.780576|    0.031268|    0.005719|
|         270|  1.9375e+00|   -7.997530|  -10.778204|    0.031275|    0.005719|
|         271|  1.9369e+00|   -8.001648|  -10.775832|    0.031282|    0.005719|
|         272|  1.9364e+00|   -8.005866|  -10.773459|    0.031288|    0.005719|
|         273|  1.9358e+00|   -8.010186|  -10.771082|    0.031295|    0.005719|
|         274|  1.9352e+00|   -8.014602|  -10.768701|    0.031302|    0.005719|
|         275|  1.9347e+00|   -8.019119|  -10.766314|    0.031309|    0.005719|
|         276|  1.9341e+00|   -8.023733|  -10.763919|    0.031315|    0.005719|
|         277|  1.9335e+00|   -8.028446|  -10.761516|    0.031322|    0.005718|
|         278|  1.9329e+00|   -8.033254|  -10.759103|    0.031328|    0.005718|
|         279|  1.9324e+00|   -8.038158|  -10.756678|    0.031334|    0.005718|
|         280|  1.9319e+00|   -8.043154|  -10.754240|    0.031341|    0.005718|
|         281|  1.9314e+00|   -8.048244|  -10.751789|    0.031347|    0.005718|
|         282|  1.9310e+00|   -8.053423|  -10.749323|    0.031353|    0.005718|
|         283|  1.9305e+00|   -8.058695|  -10.746842|    0.031359|    0.005718|
|         284|  1.9300e+00|   -8.064055|  -10.744343|    0.031365|    0.005718|
|         285|  1.9295e+00|   -8.069505|  -10.741827|    0.031371|    0.005718|
|         286|  1.9291e+00|   -8.075041|  -10.739293|    0.031376|    0.005718|
|         287|  1.9286e+00|   -8.080666|  -10.736739|    0.031382|    0.005718|
|         288|  1.9282e+00|   -8.086375|  -10.734164|    0.031388|    0.005717|
|         289|  1.9278e+00|   -8.092170|  -10.731569|    0.031393|    0.005717|
|         290|  1.9589e+00|   -8.098048|  -10.728953|    0.031398|    0.005717|
|         291|  1.9583e+00|   -8.104011|  -10.726315|    0.031404|    0.005717|
|         292|  1.9576e+00|   -8.110054|  -10.723654|    0.031409|    0.005717|
|         293|  1.9570e+00|   -8.116180|  -10.720970|    0.031414|    0.005717|
|         294|  1.9564e+00|   -8.122385|  -10.718264|    0.031419|    0.005717|
|         295|  1.9558e+00|   -8.128669|  -10.715535|    0.031424|    0.005717|
|         296|  1.9552e+00|   -8.135030|  -10.712783|    0.031429|    0.005717|
|         297|  1.9546e+00|   -8.141468|  -10.710007|    0.031434|    0.005717|
|         298|  1.9541e+00|   -8.147980|  -10.707209|    0.031438|    0.005716|
|         299|  1.9536e+00|   -8.154566|  -10.704388|    0.031443|    0.005716|
|         300|  1.9531e+00|   -8.161221|  -10.701545|    0.031447|    0.005716|
|         301|  1.9530e+00|   -8.167947|  -10.698680|    0.031452|    0.005716|
|         302|  1.9524e+00|   -8.174739|  -10.695793|    0.031456|    0.005716|
|         303|  1.9519e+00|   -8.181596|  -10.692885|    0.031460|    0.005716|
|         304|  1.9514e+00|   -8.188515|  -10.689956|    0.031464|    0.005716|
|         305|  1.9509e+00|   -8.195494|  -10.687008|    0.031468|    0.005715|
|         306|  1.9504e+00|   -8.202529|  -10.684040|    0.031472|    0.005715|
|         307|  1.9498e+00|   -8.209619|  -10.681053|    0.031476|    0.005715|
|         308|  1.9493e+00|   -8.216758|  -10.678049|    0.031479|    0.005715|
|         309|  1.9488e+00|   -8.223944|  -10.675027|    0.031483|    0.005715|
|         310|  1.9482e+00|   -8.231173|  -10.671990|    0.031486|    0.005715|
|         311|  1.9477e+00|   -8.238440|  -10.668937|    0.031490|    0.005714|
|         312|  1.9471e+00|   -8.245741|  -10.665870|    0.031493|    0.005714|
|         313|  1.9466e+00|   -8.253072|  -10.662790|    0.031496|    0.005714|
|         314|  1.9460e+00|   -8.260426|  -10.659697|    0.031499|    0.005714|
|         315|  1.9455e+00|   -8.267799|  -10.656592|    0.031502|    0.005714|
|         316|  1.9449e+00|   -8.275186|  -10.653477|    0.031505|    0.005713|
|         317|  1.9445e+00|   -8.282579|  -10.650352|    0.031508|    0.005713|
|         318|  1.9441e+00|   -8.289974|  -10.647218|    0.031511|    0.005713|
|         319|  1.9437e+00|   -8.297362|  -10.644077|    0.031513|    0.005712|
|         320|  1.9432e+00|   -8.304737|  -10.640929|    0.031516|    0.005712|
|         321|  1.9427e+00|   -8.312091|  -10.637775|    0.031518|    0.005712|
|         322|  1.9423e+00|   -8.319417|  -10.634616|    0.031520|    0.005712|
|         323|  1.9418e+00|   -8.326706|  -10.631454|    0.031522|    0.005711|
|         324|  1.9696e+00|   -8.333949|  -10.628288|    0.031524|    0.005711|
|         325|  1.9691e+00|   -8.341139|  -10.625120|    0.031526|    0.005711|
|         326|  1.9686e+00|   -8.348264|  -10.621950|    0.031528|    0.005710|
|         327|  1.9680e+00|   -8.355317|  -10.618781|    0.031530|    0.005710|
|         328|  1.9674e+00|   -8.362287|  -10.615611|    0.031531|    0.005710|
|         329|  1.9669e+00|   -8.369164|  -10.612442|    0.031533|    0.005709|
|         330|  1.9664e+00|   -8.375939|  -10.609276|    0.031534|    0.005709|
|         331|  1.9658e+00|   -8.382600|  -10.606112|    0.031536|    0.005708|
|         332|  1.9653e+00|   -8.389138|  -10.602952|    0.031537|    0.005708|
|         333|  1.9647e+00|   -8.395541|  -10.599795|    0.031538|    0.005708|
|         334|  1.9641e+00|   -8.401801|  -10.596643|    0.031539|    0.005707|
|         335|  1.9636e+00|   -8.407905|  -10.593497|    0.031540|    0.005707|
|         336|  1.9630e+00|   -8.413845|  -10.590357|    0.031541|    0.005706|
|         337|  1.9626e+00|   -8.419610|  -10.587223|    0.031542|    0.005706|
|         338|  1.9620e+00|   -8.425191|  -10.584096|    0.031542|    0.005705|
|         339|  1.9616e+00|   -8.430578|  -10.580978|    0.031543|    0.005705|
|         340|  1.9612e+00|   -8.435763|  -10.577867|    0.031543|    0.005704|
|         341|  1.9606e+00|   -8.440738|  -10.574766|    0.031544|    0.005704|
|         342|  1.9601e+00|   -8.445496|  -10.571673|    0.031544|    0.005703|
|         343|  1.9597e+00|   -8.450032|  -10.568591|    0.031544|    0.005703|
|         344|  1.9592e+00|   -8.454340|  -10.565519|    0.031544|    0.005702|
|         345|  1.9589e+00|   -8.458416|  -10.562457|    0.031544|    0.005702|
|         346|  1.9586e+00|   -8.462256|  -10.559407|    0.031544|    0.005701|
|         347|  1.9581e+00|   -8.465858|  -10.556368|    0.031544|    0.005701|
|         348|  1.9576e+00|   -8.469219|  -10.553340|    0.031544|    0.005700|
|         349|  1.9571e+00|   -8.472342|  -10.550325|    0.031543|    0.005699|
|         350|  1.9566e+00|   -8.475224|  -10.547321|    0.031543|    0.005699|
|         351|  1.9561e+00|   -8.477868|  -10.544330|    0.031543|    0.005698|
|         352|  1.9556e+00|   -8.480277|  -10.541351|    0.031542|    0.005698|
|         353|  1.9551e+00|   -8.482458|  -10.538386|    0.031541|    0.005697|
|         354|  1.9546e+00|   -8.484414|  -10.535433|    0.031541|    0.005696|
|         355|  1.9541e+00|   -8.486155|  -10.532494|    0.031540|    0.005696|
|         356|  1.9536e+00|   -8.487681|  -10.529568|    0.031539|    0.005695|
|         357|  1.9531e+00|   -8.489004|  -10.526655|    0.031538|    0.005694|
|         358|  1.9786e+00|   -8.490133|  -10.523757|    0.031537|    0.005694|
|         359|  1.9781e+00|   -8.491080|  -10.520873|    0.031536|    0.005693|
|         360|  1.9776e+00|   -8.491848|  -10.518003|    0.031535|    0.005692|
|         361|  1.9770e+00|   -8.492443|  -10.515149|    0.031533|    0.005692|
|         362|  1.9766e+00|   -8.492873|  -10.512309|    0.031532|    0.005691|
|         363|  1.9761e+00|   -8.493159|  -10.509484|    0.031531|    0.005690|
|         364|  1.9756e+00|   -8.493318|  -10.506674|    0.031529|    0.005690|
|         365|  1.9751e+00|   -8.493360|  -10.503880|    0.031528|    0.005689|
|         366|  1.9745e+00|   -8.493282|  -10.501101|    0.031526|    0.005688|
|         367|  1.9740e+00|   -8.493084|  -10.498339|    0.031525|    0.005687|
|         368|  1.9735e+00|   -8.492781|  -10.495592|    0.031523|    0.005687|
|         369|  1.9729e+00|   -8.492398|  -10.492862|    0.031521|    0.005686|
|         370|  1.9724e+00|   -8.491951|  -10.490148|    0.031519|    0.005685|
|         371|  1.9719e+00|   -8.491434|  -10.487452|    0.031517|    0.005684|
|         372|  1.9714e+00|   -8.490831|  -10.484772|    0.031516|    0.005683|
|         373|  1.9709e+00|   -8.490148|  -10.482109|    0.031514|    0.005683|
|         374|  1.9706e+00|   -8.489413|  -10.479464|    0.031511|    0.005682|
|         375|  1.9701e+00|   -8.488659|  -10.476837|    0.031509|    0.005681|
|         376|  1.9697e+00|   -8.487893|  -10.474227|    0.031507|    0.005680|
|         377|  1.9693e+00|   -8.487089|  -10.471636|    0.031505|    0.005679|
|         378|  1.9688e+00|   -8.486226|  -10.469064|    0.031503|    0.005679|
|         379|  1.9684e+00|   -8.485311|  -10.466510|    0.031501|    0.005678|
|         380|  1.9679e+00|   -8.484385|  -10.463975|    0.031498|    0.005677|
|         381|  1.9675e+00|   -8.483473|  -10.461459|    0.031496|    0.005676|
|         382|  1.9670e+00|   -8.482568|  -10.458963|    0.031493|    0.005675|
|         383|  1.9666e+00|   -8.481631|  -10.456486|    0.031491|    0.005674|
|         384|  1.9662e+00|   -8.480647|  -10.454029|    0.031488|    0.005673|
|         385|  1.9658e+00|   -8.479640|  -10.451593|    0.031486|    0.005673|
|         386|  1.9653e+00|   -8.478658|  -10.449177|    0.031483|    0.005672|
|         387|  1.9649e+00|   -8.477718|  -10.446781|    0.031481|    0.005671|
|         388|  1.9645e+00|   -8.476793|  -10.444406|    0.031478|    0.005670|
|         389|  1.9640e+00|   -8.475841|  -10.442053|    0.031475|    0.005669|
|         390|  1.9635e+00|   -8.474854|  -10.439720|    0.031473|    0.005668|
|         391|  1.9632e+00|   -8.473864|  -10.437409|    0.031470|    0.005667|
|         392|  1.9856e+00|   -8.472918|  -10.435120|    0.031467|    0.005666|
|         393|  1.9851e+00|   -8.472017|  -10.432853|    0.031465|    0.005665|
|         394|  1.9847e+00|   -8.471122|  -10.430608|    0.031462|    0.005665|
|         395|  1.9841e+00|   -8.470196|  -10.428386|    0.031459|    0.005664|
|         396|  1.9838e+00|   -8.469245|  -10.426186|    0.031456|    0.005663|
|         397|  1.9834e+00|   -8.468316|  -10.424008|    0.031453|    0.005662|
|         398|  1.9828e+00|   -8.467448|  -10.421854|    0.031450|    0.005661|
|         399|  1.9824e+00|   -8.466626|  -10.419722|    0.031448|    0.005660|
|         400|  1.9819e+00|   -8.465805|  -10.417614|    0.031445|    0.005659|
|         401|  1.9815e+00|   -8.464951|  -10.415528|    0.031442|    0.005658|
|         402|  1.9812e+00|   -8.464085|  -10.413466|    0.031439|    0.005657|
|         403|  1.9808e+00|   -8.463252|  -10.411427|    0.031436|    0.005656|
|         404|  1.9803e+00|   -8.462480|  -10.409412|    0.031433|    0.005656|
|         405|  1.9799e+00|   -8.461735|  -10.407420|    0.031430|    0.005655|
|         406|  1.9794e+00|   -8.460972|  -10.405452|    0.031427|    0.005654|
|         407|  1.9789e+00|   -8.460172|  -10.403507|    0.031425|    0.005653|
|         408|  1.9784e+00|   -8.459372|  -10.401585|    0.031422|    0.005652|
|         409|  1.9780e+00|   -8.458622|  -10.399687|    0.031419|    0.005651|
|         410|  1.9775e+00|   -8.457932|  -10.397812|    0.031416|    0.005650|
|         411|  1.9770e+00|   -8.457259|  -10.395960|    0.031413|    0.005649|
|         412|  1.9765e+00|   -8.456555|  -10.394131|    0.031410|    0.005648|
|         413|  1.9760e+00|   -8.455813|  -10.392326|    0.031407|    0.005648|
|         414|  1.9756e+00|   -8.455081|  -10.390543|    0.031404|    0.005647|
|         415|  1.9751e+00|   -8.454396|  -10.388783|    0.031402|    0.005646|
|         416|  1.9747e+00|   -8.453752|  -10.387046|    0.031399|    0.005645|
|         417|  1.9743e+00|   -8.453095|  -10.385331|    0.031396|    0.005644|
|         418|  1.9739e+00|   -8.452388|  -10.383639|    0.031393|    0.005643|
|         419|  1.9735e+00|   -8.451645|  -10.381969|    0.031390|    0.005642|
|         420|  1.9733e+00|   -8.450921|  -10.380320|    0.031388|    0.005642|
|         421|  1.9728e+00|   -8.450251|  -10.378693|    0.031385|    0.005641|
|         422|  1.9724e+00|   -8.449615|  -10.377087|    0.031382|    0.005640|
|         423|  1.9720e+00|   -8.448954|  -10.375503|    0.031380|    0.005639|
|         424|  1.9716e+00|   -8.448237|  -10.373939|    0.031377|    0.005638|
|         425|  1.9712e+00|   -8.447482|  -10.372396|    0.031374|    0.005637|
|         426|  1.9708e+00|   -8.446747|  -10.370873|    0.031372|    0.005637|
|         427|  1.9703e+00|   -8.446050|  -10.369370|    0.031369|    0.005636|
|         428|  1.9699e+00|   -8.445364|  -10.367888|    0.031367|    0.005635|
|         429|  1.9695e+00|   -8.444631|  -10.366425|    0.031364|    0.005634|
|         430|  1.9690e+00|   -8.443831|  -10.364981|    0.031361|    0.005633|
|         431|  1.9686e+00|   -8.442995|  -10.363557|    0.031359|    0.005633|
|         432|  1.9681e+00|   -8.442183|  -10.362151|    0.031357|    0.005632|
|         433|  1.9677e+00|   -8.441413|  -10.360764|    0.031354|    0.005631|
|         434|  1.9672e+00|   -8.440651|  -10.359395|    0.031352|    0.005630|
|         435|  1.9668e+00|   -8.439840|  -10.358045|    0.031349|    0.005630|
|         436|  1.9665e+00|   -8.438960|  -10.356713|    0.031347|    0.005629|
|         437|  1.9661e+00|   -8.438039|  -10.355398|    0.031345|    0.005628|
|         438|  1.9657e+00|   -8.437135|  -10.354101|    0.031343|    0.005628|
|         439|  1.9654e+00|   -8.436258|  -10.352821|    0.031340|    0.005627|
|         440|  1.9649e+00|   -8.435376|  -10.351557|    0.031338|    0.005626|
|         441|  1.9646e+00|   -8.434439|  -10.350310|    0.031336|    0.005625|
|         442|  1.9643e+00|   -8.433429|  -10.349079|    0.031334|    0.005625|
|         443|  1.9638e+00|   -8.432380|  -10.347864|    0.031332|    0.005624|
|         444|  1.9635e+00|   -8.431346|  -10.346665|    0.031330|    0.005623|
|         445|  1.9631e+00|   -8.430350|  -10.345481|    0.031328|    0.005623|
|         446|  1.9627e+00|   -8.429359|  -10.344313|    0.031326|    0.005622|
|         447|  1.9624e+00|   -8.428322|  -10.343160|    0.031324|    0.005621|
|         448|  1.9620e+00|   -8.427219|  -10.342021|    0.031322|    0.005621|
|         449|  1.9616e+00|   -8.426070|  -10.340897|    0.031320|    0.005620|
|         450|  1.9613e+00|   -8.424927|  -10.339788|    0.031318|    0.005620|
|         451|  1.9608e+00|   -8.423810|  -10.338692|    0.031317|    0.005619|
|         452|  1.9605e+00|   -8.422699|  -10.337611|    0.031315|    0.005618|
|         453|  1.9602e+00|   -8.421552|  -10.336544|    0.031313|    0.005618|
|         454|  1.9598e+00|   -8.420342|  -10.335490|    0.031312|    0.005617|
|         455|  1.9594e+00|   -8.419088|  -10.334450|    0.031310|    0.005617|
|         456|  1.9590e+00|   -8.417840|  -10.333422|    0.031308|    0.005616|
|         457|  1.9586e+00|   -8.416631|  -10.332408|    0.031307|    0.005616|
|         458|  1.9582e+00|   -8.415447|  -10.331406|    0.031306|    0.005615|
|         459|  1.9578e+00|   -8.414245|  -10.330416|    0.031304|    0.005615|
|         460|  1.9575e+00|   -8.412995|  -10.329440|    0.031303|    0.005614|
|         461|  1.9571e+00|   -8.411699|  -10.328475|    0.031301|    0.005614|
|         462|  1.9567e+00|   -8.410404|  -10.327523|    0.031300|    0.005613|
|         463|  1.9564e+00|   -8.409140|  -10.326582|    0.031299|    0.005613|
|         464|  1.9561e+00|   -8.407908|  -10.325653|    0.031297|    0.005612|
|         465|  1.9557e+00|   -8.406672|  -10.324736|    0.031296|    0.005612|
|         466|  1.9553e+00|   -8.405398|  -10.323830|    0.031295|    0.005611|
|         467|  1.9550e+00|   -8.404084|  -10.322936|    0.031294|    0.005611|
|         468|  1.9547e+00|   -8.402764|  -10.322052|    0.031293|    0.005610|
|         469|  1.9545e+00|   -8.401485|  -10.321179|    0.031292|    0.005610|
|         470|  1.9543e+00|   -8.400255|  -10.320317|    0.031291|    0.005609|
|         471|  1.9539e+00|   -8.399043|  -10.319466|    0.031290|    0.005609|
|         472|  1.9536e+00|   -8.397813|  -10.318625|    0.031289|    0.005609|
|         473|  1.9532e+00|   -8.396550|  -10.317794|    0.031288|    0.005608|
|         474|  1.9529e+00|   -8.395280|  -10.316974|    0.031287|    0.005608|
|         475|  1.9525e+00|   -8.394043|  -10.316163|    0.031286|    0.005607|
|         476|  1.9521e+00|   -8.392859|  -10.315363|    0.031286|    0.005607|
|         477|  1.9518e+00|   -8.391703|  -10.314572|    0.031285|    0.005607|
|         478|  1.9514e+00|   -8.390541|  -10.313792|    0.031284|    0.005606|
|         479|  1.9511e+00|   -8.389353|  -10.313020|    0.031283|    0.005606|
|         480|  1.9507e+00|   -8.388156|  -10.312259|    0.031283|    0.005606|
|         481|  1.9504e+00|   -8.386995|  -10.311506|    0.031282|    0.005605|
|         482|  1.9500e+00|   -8.385895|  -10.310762|    0.031281|    0.005605|
|         483|  1.9497e+00|   -8.384846|  -10.310027|    0.031281|    0.005605|
|         484|  1.9493e+00|   -8.383807|  -10.309302|    0.031280|    0.005604|
|         485|  1.9490e+00|   -8.382751|  -10.308585|    0.031280|    0.005604|
|         486|  1.9488e+00|   -8.381689|  -10.307877|    0.031279|    0.005604|
|         487|  1.9487e+00|   -8.380655|  -10.307178|    0.031279|    0.005603|
|         488|  1.9484e+00|   -8.379686|  -10.306487|    0.031278|    0.005603|
|         489|  1.9481e+00|   -8.378769|  -10.305806|    0.031278|    0.005603|
|         490|  1.9477e+00|   -8.377872|  -10.305132|    0.031278|    0.005603|
|         491|  1.9475e+00|   -8.376965|  -10.304468|    0.031277|    0.005602|
|         492|  1.9472e+00|   -8.376049|  -10.303811|    0.031277|    0.005602|
|         493|  1.9469e+00|   -8.375163|  -10.303163|    0.031277|    0.005602|
|         494|  1.9465e+00|   -8.374344|  -10.302522|    0.031276|    0.005602|
|         495|  1.9462e+00|   -8.373592|  -10.301890|    0.031276|    0.005601|
|         496|  1.9459e+00|   -8.372872|  -10.301266|    0.031276|    0.005601|
|         497|  1.9456e+00|   -8.372151|  -10.300650|    0.031276|    0.005601|
|         498|  1.9452e+00|   -8.371424|  -10.300042|    0.031276|    0.005601|
|         499|  1.9449e+00|   -8.370723|  -10.299442|    0.031275|    0.005601|
|         500|  1.9446e+00|   -8.370086|  -10.298849|    0.031275|    0.005600|
+-----------------------------------------------------------------------+
|        File Writing Summary       |              Filename             |
+-----------------------------------------------------------------------+
|SU2 restart                        |restart_flow.dat                   |
|Paraview                           |flow.vtu                           |
|Paraview surface                   |surface_flow.vtu                   |
+-----------------------------------------------------------------------+
+-----------------------------------------------------------------------------+
|  Inner_Iter|   Time(sec)|    rms[Rho]|     rms[nu]|          CL|          CD|
+-----------------------------------------------------------------------------+
|         501|  1.9469e+00|   -8.369516|  -10.298264|    0.031275|    0.005600|
|         502|  1.9466e+00|   -8.368982|  -10.297687|    0.031275|    0.005600|
|         503|  1.9463e+00|   -8.368450|  -10.297117|    0.031275|    0.005600|
|         504|  1.9460e+00|   -8.367912|  -10.296556|    0.031275|    0.005600|
|         505|  1.9458e+00|   -8.367397|  -10.296001|    0.031275|    0.005599|
|         506|  1.9454e+00|   -8.366945|  -10.295454|    0.031275|    0.005599|
|         507|  1.9452e+00|   -8.366569|  -10.294914|    0.031275|    0.005599|
|         508|  1.9449e+00|   -8.366238|  -10.294381|    0.031275|    0.005599|
|         509|  1.9446e+00|   -8.365916|  -10.293855|    0.031275|    0.005599|
|         510|  1.9443e+00|   -8.365590|  -10.293337|    0.031275|    0.005599|
|         511|  1.9440e+00|   -8.365284|  -10.292826|    0.031275|    0.005598|
|         512|  1.9437e+00|   -8.365039|  -10.292322|    0.031275|    0.005598|
|         513|  1.9435e+00|   -8.364866|  -10.291824|    0.031275|    0.005598|
|         514|  1.9432e+00|   -8.364739|  -10.291334|    0.031275|    0.005598|
|         515|  1.9429e+00|   -8.364622|  -10.290850|    0.031275|    0.005598|
|         516|  1.9426e+00|   -8.364498|  -10.290373|    0.031275|    0.005598|
|         517|  1.9423e+00|   -8.364392|  -10.289902|    0.031275|    0.005598|
|         518|  1.9420e+00|   -8.364342|  -10.289438|    0.031276|    0.005598|
|         519|  1.9417e+00|   -8.364370|  -10.288980|    0.031276|    0.005597|
|         520|  1.9415e+00|   -8.364451|  -10.288527|    0.031276|    0.005597|
|         521|  1.9411e+00|   -8.364547|  -10.288081|    0.031276|    0.005597|
|         522|  1.9409e+00|   -8.364637|  -10.287641|    0.031276|    0.005597|
|         523|  1.9405e+00|   -8.364738|  -10.287207|    0.031276|    0.005597|
|         524|  1.9402e+00|   -8.364891|  -10.286778|    0.031276|    0.005597|
|         525|  1.9399e+00|   -8.365116|  -10.286355|    0.031276|    0.005597|
|         526|  1.9396e+00|   -8.365392|  -10.285936|    0.031277|    0.005597|
|         527|  1.9393e+00|   -8.365684|  -10.285524|    0.031277|    0.005597|
|         528|  1.9390e+00|   -8.365968|  -10.285116|    0.031277|    0.005596|
|         529|  1.9387e+00|   -8.366257|  -10.284714|    0.031277|    0.005596|
|         530|  1.9384e+00|   -8.366592|  -10.284316|    0.031277|    0.005596|
|         531|  1.9382e+00|   -8.367002|  -10.283922|    0.031277|    0.005596|
|         532|  1.9379e+00|   -8.367470|  -10.283532|    0.031278|    0.005596|
|         533|  1.9377e+00|   -8.367958|  -10.283148|    0.031278|    0.005596|
|         534|  1.9374e+00|   -8.368439|  -10.282767|    0.031278|    0.005596|
|         535|  1.9372e+00|   -8.368918|  -10.282390|    0.031278|    0.005596|
|         536|  1.9371e+00|   -8.369435|  -10.282018|    0.031278|    0.005596|
|         537|  1.9368e+00|   -8.370018|  -10.281648|    0.031278|    0.005596|
|         538|  1.9365e+00|   -8.370659|  -10.281283|    0.031279|    0.005596|
|         539|  1.9363e+00|   -8.371320|  -10.280921|    0.031279|    0.005595|
|         540|  1.9360e+00|   -8.371972|  -10.280562|    0.031279|    0.005595|
|         541|  1.9358e+00|   -8.372616|  -10.280206|    0.031279|    0.005595|
|         542|  1.9355e+00|   -8.373287|  -10.279853|    0.031279|    0.005595|
|         543|  1.9352e+00|   -8.374024|  -10.279502|    0.031279|    0.005595|
|         544|  1.9350e+00|   -8.374823|  -10.279154|    0.031280|    0.005595|
|         545|  1.9347e+00|   -8.375651|  -10.278809|    0.031280|    0.005595|
|         546|  1.9344e+00|   -8.376472|  -10.278465|    0.031280|    0.005595|
|         547|  1.9341e+00|   -8.377276|  -10.278124|    0.031280|    0.005595|
|         548|  1.9338e+00|   -8.378096|  -10.277785|    0.031280|    0.005595|
|         549|  1.9335e+00|   -8.378969|  -10.277448|    0.031280|    0.005595|
|         550|  1.9333e+00|   -8.379904|  -10.277112|    0.031280|    0.005595|
|         551|  1.9330e+00|   -8.380869|  -10.276777|    0.031281|    0.005594|
|         552|  1.9328e+00|   -8.381826|  -10.276445|    0.031281|    0.005594|
|         553|  1.9327e+00|   -8.382762|  -10.276113|    0.031281|    0.005594|
|         554|  1.9324e+00|   -8.383699|  -10.275783|    0.031281|    0.005594|
|         555|  1.9321e+00|   -8.384683|  -10.275454|    0.031281|    0.005594|
|         556|  1.9319e+00|   -8.385730|  -10.275125|    0.031281|    0.005594|
|         557|  1.9317e+00|   -8.386817|  -10.274797|    0.031281|    0.005594|
|         558|  1.9315e+00|   -8.387903|  -10.274471|    0.031281|    0.005594|
|         559|  1.9484e+00|   -8.388962|  -10.274145|    0.031281|    0.005594|
|         560|  1.9481e+00|   -8.390010|  -10.273820|    0.031281|    0.005594|
|         561|  1.9479e+00|   -8.391087|  -10.273497|    0.031281|    0.005594|
|         562|  1.9476e+00|   -8.392224|  -10.273173|    0.031281|    0.005594|
|         563|  1.9473e+00|   -8.393402|  -10.272851|    0.031281|    0.005593|
|         564|  1.9471e+00|   -8.394583|  -10.272530|    0.031281|    0.005593|
|         565|  1.9468e+00|   -8.395736|  -10.272209|    0.031281|    0.005593|
|         566|  1.9465e+00|   -8.396861|  -10.271890|    0.031281|    0.005593|
|         567|  1.9462e+00|   -8.398002|  -10.271571|    0.031281|    0.005593|
|         568|  1.9459e+00|   -8.399196|  -10.271253|    0.031281|    0.005593|
|         569|  1.9457e+00|   -8.400442|  -10.270936|    0.031281|    0.005593|
|         570|  1.9454e+00|   -8.401702|  -10.270621|    0.031281|    0.005593|
|         571|  1.9451e+00|   -8.402937|  -10.270307|    0.031281|    0.005593|
|         572|  1.9448e+00|   -8.404136|  -10.269995|    0.031281|    0.005593|
|         573|  1.9446e+00|   -8.405329|  -10.269685|    0.031281|    0.005592|
|         574|  1.9443e+00|   -8.406563|  -10.269377|    0.031281|    0.005592|
|         575|  1.9441e+00|   -8.407847|  -10.269072|    0.031281|    0.005592|
|         576|  1.9439e+00|   -8.409150|  -10.268769|    0.031281|    0.005592|
|         577|  1.9436e+00|   -8.410432|  -10.268469|    0.031281|    0.005592|
|         578|  1.9434e+00|   -8.411669|  -10.268173|    0.031280|    0.005592|
|         579|  1.9431e+00|   -8.412883|  -10.267881|    0.031280|    0.005592|
|         580|  1.9430e+00|   -8.414121|  -10.267592|    0.031280|    0.005592|
|         581|  1.9428e+00|   -8.415412|  -10.267307|    0.031280|    0.005592|
|         582|  1.9425e+00|   -8.416737|  -10.267028|    0.031280|    0.005592|
|         583|  1.9422e+00|   -8.418051|  -10.266753|    0.031280|    0.005591|
|         584|  1.9420e+00|   -8.419321|  -10.266485|    0.031280|    0.005591|
|         585|  1.9417e+00|   -8.420550|  -10.266223|    0.031279|    0.005591|
|         586|  1.9414e+00|   -8.421782|  -10.265968|    0.031279|    0.005591|
|         587|  1.9411e+00|   -8.423058|  -10.265720|    0.031279|    0.005591|
|         588|  1.9408e+00|   -8.424372|  -10.265480|    0.031279|    0.005591|
|         589|  1.9406e+00|   -8.425687|  -10.265248|    0.031278|    0.005591|
|         590|  1.9403e+00|   -8.426959|  -10.265026|    0.031278|    0.005591|
|         591|  1.9401e+00|   -8.428182|  -10.264813|    0.031278|    0.005591|
|         592|  1.9398e+00|   -8.429386|  -10.264611|    0.031278|    0.005590|
|         593|  1.9550e+00|   -8.430622|  -10.264419|    0.031277|    0.005590|
|         594|  1.9547e+00|   -8.431906|  -10.264238|    0.031277|    0.005590|
|         595|  1.9545e+00|   -8.433205|  -10.264070|    0.031277|    0.005590|
|         596|  1.9542e+00|   -8.434475|  -10.263914|    0.031277|    0.005590|
|         597|  1.9540e+00|   -8.435689|  -10.263773|    0.031276|    0.005590|
|         598|  1.9537e+00|   -8.436866|  -10.263646|    0.031276|    0.005590|
|         599|  1.9534e+00|   -8.438052|  -10.263534|    0.031276|    0.005590|
|         600|  1.9531e+00|   -8.439283|  -10.263437|    0.031275|    0.005589|
|         601|  1.9529e+00|   -8.440540|  -10.263357|    0.031275|    0.005589|
|         602|  1.9526e+00|   -8.441781|  -10.263294|    0.031275|    0.005589|
|         603|  1.9523e+00|   -8.442969|  -10.263249|    0.031275|    0.005589|
|         604|  1.9520e+00|   -8.444104|  -10.263223|    0.031274|    0.005589|
|         605|  1.9517e+00|   -8.445229|  -10.263217|    0.031274|    0.005589|
|         606|  1.9514e+00|   -8.446390|  -10.263229|    0.031273|    0.005589|
|         607|  1.9511e+00|   -8.447592|  -10.263263|    0.031273|    0.005589|
|         608|  1.9508e+00|   -8.448795|  -10.263318|    0.031273|    0.005588|
|         609|  1.9507e+00|   -8.449954|  -10.263395|    0.031272|    0.005588|
|         610|  1.9505e+00|   -8.451055|  -10.263496|    0.031272|    0.005588|
|         611|  1.9502e+00|   -8.452121|  -10.263621|    0.031272|    0.005588|
|         612|  1.9500e+00|   -8.453208|  -10.263769|    0.031271|    0.005588|
|         613|  1.9497e+00|   -8.454336|  -10.263943|    0.031271|    0.005588|
|         614|  1.9495e+00|   -8.455480|  -10.264142|    0.031270|    0.005588|
|         615|  1.9493e+00|   -8.456595|  -10.264367|    0.031270|    0.005587|
|         616|  1.9490e+00|   -8.457651|  -10.264620|    0.031270|    0.005587|
|         617|  1.9488e+00|   -8.458658|  -10.264901|    0.031269|    0.005587|
|         618|  1.9485e+00|   -8.459662|  -10.265209|    0.031269|    0.005587|
|         619|  1.9482e+00|   -8.460708|  -10.265546|    0.031268|    0.005587|
|         620|  1.9480e+00|   -8.461787|  -10.265912|    0.031268|    0.005587|
|         621|  1.9478e+00|   -8.462858|  -10.266308|    0.031268|    0.005587|
|         622|  1.9475e+00|   -8.463880|  -10.266735|    0.031267|    0.005586|
|         623|  1.9472e+00|   -8.464841|  -10.267193|    0.031267|    0.005586|
|         624|  1.9469e+00|   -8.465780|  -10.267682|    0.031266|    0.005586|
|         625|  1.9468e+00|   -8.466743|  -10.268203|    0.031266|    0.005586|
|         626|  1.9466e+00|   -8.467748|  -10.268756|    0.031265|    0.005586|
|         627|  1.9607e+00|   -8.468764|  -10.269341|    0.031265|    0.005586|
|         628|  1.9604e+00|   -8.469745|  -10.269959|    0.031265|    0.005586|
|         629|  1.9602e+00|   -8.470668|  -10.270612|    0.031264|    0.005585|
|         630|  1.9599e+00|   -8.471547|  -10.271298|    0.031264|    0.005585|
|         631|  1.9597e+00|   -8.472435|  -10.272018|    0.031263|    0.005585|
|         632|  1.9594e+00|   -8.473364|  -10.272772|    0.031263|    0.005585|
|         633|  1.9591e+00|   -8.474325|  -10.273560|    0.031262|    0.005585|
|         634|  1.9589e+00|   -8.475272|  -10.274384|    0.031262|    0.005585|
|         635|  1.9586e+00|   -8.476169|  -10.275243|    0.031261|    0.005585|
|         636|  1.9583e+00|   -8.477014|  -10.276138|    0.031261|    0.005584|
|         637|  1.9582e+00|   -8.477842|  -10.277068|    0.031260|    0.005584|
|         638|  1.9579e+00|   -8.478704|  -10.278033|    0.031260|    0.005584|
|         639|  1.9577e+00|   -8.479606|  -10.279033|    0.031259|    0.005584|
|         640|  1.9574e+00|   -8.480515|  -10.280069|    0.031259|    0.005584|
|         641|  1.9571e+00|   -8.481390|  -10.281141|    0.031259|    0.005584|
|         642|  1.9569e+00|   -8.482211|  -10.282250|    0.031258|    0.005584|
|         643|  1.9566e+00|   -8.482999|  -10.283394|    0.031258|    0.005583|
|         644|  1.9563e+00|   -8.483801|  -10.284573|    0.031257|    0.005583|
|         645|  1.9560e+00|   -8.484650|  -10.285787|    0.031257|    0.005583|
|         646|  1.9558e+00|   -8.485529|  -10.287037|    0.031256|    0.005583|
|         647|  1.9555e+00|   -8.486395|  -10.288322|    0.031256|    0.005583|
|         648|  1.9552e+00|   -8.487215|  -10.289642|    0.031255|    0.005583|
|         649|  1.9550e+00|   -8.487989|  -10.290998|    0.031255|    0.005582|
|         650|  1.9547e+00|   -8.488758|  -10.292389|    0.031254|    0.005582|
|         651|  1.9545e+00|   -8.489564|  -10.293813|    0.031254|    0.005582|
|         652|  1.9542e+00|   -8.490413|  -10.295271|    0.031253|    0.005582|
|         653|  1.9540e+00|   -8.491269|  -10.296764|    0.031253|    0.005582|
|         654|  1.9538e+00|   -8.492095|  -10.298290|    0.031252|    0.005582|
|         655|  1.9536e+00|   -8.492875|  -10.299850|    0.031252|    0.005582|
|         656|  1.9534e+00|   -8.493629|  -10.301443|    0.031251|    0.005581|
|         657|  1.9532e+00|   -8.494407|  -10.303067|    0.031251|    0.005581|
|         658|  1.9529e+00|   -8.495233|  -10.304724|    0.031250|    0.005581|
|         659|  1.9526e+00|   -8.496089|  -10.306411|    0.031250|    0.005581|
|         660|  1.9524e+00|   -8.496936|  -10.308130|    0.031250|    0.005581|
|         661|  1.9659e+00|   -8.497744|  -10.309880|    0.031249|    0.005581|
|         662|  1.9656e+00|   -8.498515|  -10.311660|    0.031249|    0.005581|
|         663|  1.9654e+00|   -8.499288|  -10.313469|    0.031248|    0.005580|
|         664|  1.9651e+00|   -8.500103|  -10.315306|    0.031248|    0.005580|
|         665|  1.9649e+00|   -8.500962|  -10.317171|    0.031247|    0.005580|
|         666|  1.9647e+00|   -8.501831|  -10.319062|    0.031247|    0.005580|
|         667|  1.9645e+00|   -8.502675|  -10.320981|    0.031246|    0.005580|
|         668|  1.9642e+00|   -8.503480|  -10.322925|    0.031246|    0.005580|
|         669|  1.9640e+00|   -8.504269|  -10.324893|    0.031246|    0.005580|
|         670|  1.9637e+00|   -8.505086|  -10.326884|    0.031245|    0.005579|
|         671|  1.9635e+00|   -8.505954|  -10.328897|    0.031245|    0.005579|
|         672|  1.9633e+00|   -8.506854|  -10.330931|    0.031244|    0.005579|
|         673|  1.9630e+00|   -8.507748|  -10.332987|    0.031244|    0.005579|
|         674|  1.9628e+00|   -8.508610|  -10.335064|    0.031243|    0.005579|
|         675|  1.9625e+00|   -8.509442|  -10.337161|    0.031243|    0.005579|
|         676|  1.9622e+00|   -8.510284|  -10.339277|    0.031243|    0.005579|
|         677|  1.9620e+00|   -8.511170|  -10.341412|    0.031242|    0.005578|
|         678|  1.9618e+00|   -8.512102|  -10.343566|    0.031242|    0.005578|
|         679|  1.9615e+00|   -8.513047|  -10.345738|    0.031241|    0.005578|
|         680|  1.9612e+00|   -8.513971|  -10.347928|    0.031241|    0.005578|
|         681|  1.9610e+00|   -8.514863|  -10.350135|    0.031241|    0.005578|
|         682|  1.9608e+00|   -8.515744|  -10.352359|    0.031240|    0.005578|
|         683|  1.9605e+00|   -8.516659|  -10.354597|    0.031240|    0.005578|
|         684|  1.9603e+00|   -8.517626|  -10.356850|    0.031239|    0.005577|
|         685|  1.9600e+00|   -8.518626|  -10.359116|    0.031239|    0.005577|
|         686|  1.9598e+00|   -8.519622|  -10.361396|    0.031239|    0.005577|
|         687|  1.9595e+00|   -8.520589|  -10.363688|    0.031238|    0.005577|
|         688|  1.9593e+00|   -8.521535|  -10.365992|    0.031238|    0.005577|
|         689|  1.9590e+00|   -8.522494|  -10.368306|    0.031237|    0.005577|
|         690|  1.9587e+00|   -8.523502|  -10.370628|    0.031237|    0.005577|
|         691|  1.9585e+00|   -8.524555|  -10.372959|    0.031237|    0.005577|
|         692|  1.9583e+00|   -8.525621|  -10.375298|    0.031236|    0.005576|
|         693|  1.9581e+00|   -8.526669|  -10.377645|    0.031236|    0.005576|
|         694|  1.9579e+00|   -8.527689|  -10.379999|    0.031236|    0.005576|
|         695|  1.9707e+00|   -8.528707|  -10.382358|    0.031235|    0.005576|
|         696|  1.9704e+00|   -8.529760|  -10.384721|    0.031235|    0.005576|
|         697|  1.9702e+00|   -8.530867|  -10.387088|    0.031235|    0.005576|
|         698|  1.9699e+00|   -8.532004|  -10.389458|    0.031234|    0.005576|
|         699|  1.9696e+00|   -8.533138|  -10.391831|    0.031234|    0.005576|
|         700|  1.9694e+00|   -8.534246|  -10.394207|    0.031234|    0.005575|
|         701|  1.9691e+00|   -8.535337|  -10.396585|    0.031233|    0.005575|
|         702|  1.9688e+00|   -8.536448|  -10.398963|    0.031233|    0.005575|
|         703|  1.9686e+00|   -8.537607|  -10.401340|    0.031233|    0.005575|
|         704|  1.9683e+00|   -8.538811|  -10.403717|    0.031232|    0.005575|
|         705|  1.9680e+00|   -8.540026|  -10.406093|    0.031232|    0.005575|
|         706|  1.9678e+00|   -8.541223|  -10.408468|    0.031232|    0.005575|
|         707|  1.9675e+00|   -8.542396|  -10.410841|    0.031232|    0.005575|
|         708|  1.9673e+00|   -8.543570|  -10.413212|    0.031231|    0.005575|
|         709|  1.9671e+00|   -8.544784|  -10.415578|    0.031231|    0.005574|
|         710|  1.9668e+00|   -8.546049|  -10.417940|    0.031231|    0.005574|
|         711|  1.9668e+00|   -8.547341|  -10.420297|    0.031230|    0.005574|
|         712|  1.9666e+00|   -8.548629|  -10.422649|    0.031230|    0.005574|
|         713|  1.9663e+00|   -8.549891|  -10.424997|    0.031230|    0.005574|
|         714|  1.9661e+00|   -8.551141|  -10.427337|    0.031230|    0.005574|
|         715|  1.9659e+00|   -8.552412|  -10.429670|    0.031229|    0.005574|
|         716|  1.9656e+00|   -8.553734|  -10.431994|    0.031229|    0.005574|
|         717|  1.9654e+00|   -8.555096|  -10.434309|    0.031229|    0.005574|
|         718|  1.9652e+00|   -8.556466|  -10.436616|    0.031228|    0.005573|
|         719|  1.9649e+00|   -8.557817|  -10.438915|    0.031228|    0.005573|
|         720|  1.9647e+00|   -8.559146|  -10.441206|    0.031228|    0.005573|
|         721|  1.9644e+00|   -8.560480|  -10.443488|    0.031228|    0.005573|
|         722|  1.9642e+00|   -8.561854|  -10.445762|    0.031227|    0.005573|
|         723|  1.9639e+00|   -8.563277|  -10.448028|    0.031227|    0.005573|
|         724|  1.9637e+00|   -8.564725|  -10.450287|    0.031227|    0.005573|
|         725|  1.9634e+00|   -8.566162|  -10.452540|    0.031227|    0.005573|
|         726|  1.9632e+00|   -8.567575|  -10.454787|    0.031227|    0.005573|
|         727|  1.9630e+00|   -8.568976|  -10.457027|    0.031226|    0.005572|
|         728|  1.9628e+00|   -8.570404|  -10.459259|    0.031226|    0.005572|
|         729|  1.9749e+00|   -8.571881|  -10.461483|    0.031226|    0.005572|
|         730|  1.9747e+00|   -8.573394|  -10.463700|    0.031226|    0.005572|
|         731|  1.9745e+00|   -8.574910|  -10.465908|    0.031225|    0.005572|
|         732|  1.9742e+00|   -8.576403|  -10.468108|    0.031225|    0.005572|
|         733|  1.9739e+00|   -8.577876|  -10.470299|    0.031225|    0.005572|
|         734|  1.9737e+00|   -8.579356|  -10.472481|    0.031225|    0.005572|
|         735|  1.9735e+00|   -8.580880|  -10.474652|    0.031224|    0.005572|
|         736|  1.9732e+00|   -8.582448|  -10.476812|    0.031224|    0.005572|
|         737|  1.9730e+00|   -8.584034|  -10.478963|    0.031224|    0.005571|
|         738|  1.9727e+00|   -8.585606|  -10.481104|    0.031224|    0.005571|
|         739|  1.9725e+00|   -8.587151|  -10.483235|    0.031224|    0.005571|
|         740|  1.9722e+00|   -8.588688|  -10.485356|    0.031223|    0.005571|
|         741|  1.9720e+00|   -8.590254|  -10.487465|    0.031223|    0.005571|
|         742|  1.9717e+00|   -8.591868|  -10.489564|    0.031223|    0.005571|
|         743|  1.9715e+00|   -8.593512|  -10.491652|    0.031223|    0.005571|
|         744|  1.9712e+00|   -8.595153|  -10.493731|    0.031223|    0.005571|
|         745|  1.9710e+00|   -8.596769|  -10.495800|    0.031222|    0.005571|
|         746|  1.9708e+00|   -8.598363|  -10.497859|    0.031222|    0.005571|
|         747|  1.9705e+00|   -8.599968|  -10.499908|    0.031222|    0.005571|
|         748|  1.9703e+00|   -8.601621|  -10.501946|    0.031222|    0.005570|
|         749|  1.9701e+00|   -8.603317|  -10.503975|    0.031222|    0.005570|
|         750|  1.9698e+00|   -8.605023|  -10.505994|    0.031221|    0.005570|
+-----------------------------------------------------------------------+
|        File Writing Summary       |              Filename             |
+-----------------------------------------------------------------------+
|SU2 restart                        |restart_flow.dat                   |
|Paraview                           |flow.vtu                           |
|Paraview surface                   |surface_flow.vtu                   |
+-----------------------------------------------------------------------+
+-----------------------------------------------------------------------------+
|  Inner_Iter|   Time(sec)|    rms[Rho]|     rms[nu]|          CL|          CD|
+-----------------------------------------------------------------------------+
|         751|  1.9713e+00|   -8.606708|  -10.508004|    0.031221|    0.005570|
|         752|  1.9711e+00|   -8.608365|  -10.510006|    0.031221|    0.005570|
|         753|  1.9709e+00|   -8.610014|  -10.511998|    0.031221|    0.005570|
|         754|  1.9706e+00|   -8.611693|  -10.513980|    0.031221|    0.005570|
|         755|  1.9704e+00|   -8.613416|  -10.515953|    0.031220|    0.005570|
|         756|  1.9702e+00|   -8.615164|  -10.517918|    0.031220|    0.005570|
|         757|  1.9700e+00|   -8.616903|  -10.519874|    0.031220|    0.005570|
|         758|  1.9697e+00|   -8.618612|  -10.521823|    0.031220|    0.005570|
|         759|  1.9695e+00|   -8.620303|  -10.523764|    0.031220|    0.005569|
|         760|  1.9692e+00|   -8.622008|  -10.525697|    0.031219|    0.005569|
|         761|  1.9690e+00|   -8.623757|  -10.527620|    0.031219|    0.005569|
|         762|  1.9687e+00|   -8.625543|  -10.529536|    0.031219|    0.005569|
|         763|  1.9685e+00|   -8.627332|  -10.531444|    0.031219|    0.005569|
|         764|  1.9683e+00|   -8.629097|  -10.533346|    0.031219|    0.005569|
|         765|  1.9680e+00|   -8.630831|  -10.535241|    0.031219|    0.005569|
|         766|  1.9678e+00|   -8.632563|  -10.537128|    0.031218|    0.005569|
|         767|  1.9676e+00|   -8.634328|  -10.539008|    0.031218|    0.005569|
|         768|  1.9673e+00|   -8.636135|  -10.540881|    0.031218|    0.005569|
|         769|  1.9671e+00|   -8.637960|  -10.542747|    0.031218|    0.005569|
|         770|  1.9669e+00|   -8.639768|  -10.544607|    0.031218|    0.005568|
|         771|  1.9666e+00|   -8.641545|  -10.546462|    0.031217|    0.005568|
|         772|  1.9665e+00|   -8.643302|  -10.548310|    0.031217|    0.005568|
|         773|  1.9663e+00|   -8.645077|  -10.550152|    0.031217|    0.005568|
|         774|  1.9661e+00|   -8.646895|  -10.551988|    0.031217|    0.005568|
|         775|  1.9658e+00|   -8.648743|  -10.553817|    0.031217|    0.005568|
|         776|  1.9656e+00|   -8.650589|  -10.555642|    0.031216|    0.005568|
|         777|  1.9653e+00|   -8.652404|  -10.557463|    0.031216|    0.005568|
|         778|  1.9651e+00|   -8.654189|  -10.559278|    0.031216|    0.005568|
|         779|  1.9648e+00|   -8.655974|  -10.561088|    0.031216|    0.005568|
|         780|  1.9646e+00|   -8.657795|  -10.562893|    0.031216|    0.005568|
|         781|  1.9644e+00|   -8.659655|  -10.564692|    0.031215|    0.005567|
|         782|  1.9641e+00|   -8.661526|  -10.566487|    0.031215|    0.005567|
|         783|  1.9639e+00|   -8.663376|  -10.568279|    0.031215|    0.005567|
|         784|  1.9637e+00|   -8.665190|  -10.570067|    0.031215|    0.005567|
|         785|  1.9635e+00|   -8.666987|  -10.571850|    0.031215|    0.005567|
|         786|  1.9633e+00|   -8.668804|  -10.573629|    0.031214|    0.005567|
|         787|  1.9630e+00|   -8.670664|  -10.575404|    0.031214|    0.005567|
|         788|  1.9629e+00|   -8.672549|  -10.577174|    0.031214|    0.005567|
|         789|  1.9628e+00|   -8.674425|  -10.578942|    0.031214|    0.005567|
|         790|  1.9626e+00|   -8.676267|  -10.580707|    0.031214|    0.005567|
|         791|  1.9624e+00|   -8.678078|  -10.582469|    0.031213|    0.005567|
|         792|  1.9622e+00|   -8.679892|  -10.584228|    0.031213|    0.005566|
|         793|  1.9620e+00|   -8.681742|  -10.585982|    0.031213|    0.005566|
|         794|  1.9618e+00|   -8.683629|  -10.587733|    0.031213|    0.005566|
|         795|  1.9616e+00|   -8.685521|  -10.589481|    0.031213|    0.005566|
|         796|  1.9613e+00|   -8.687386|  -10.591228|    0.031212|    0.005566|
|         797|  1.9611e+00|   -8.689215|  -10.592972|    0.031212|    0.005566|
|         798|  1.9609e+00|   -8.691026|  -10.594714|    0.031212|    0.005566|
|         799|  1.9607e+00|   -8.692861|  -10.596452|    0.031212|    0.005566|
|         800|  1.9604e+00|   -8.694736|  -10.598187|    0.031212|    0.005566|
|         801|  1.9603e+00|   -8.696632|  -10.599920|    0.031211|    0.005566|
|         802|  1.9600e+00|   -8.698514|  -10.601652|    0.031211|    0.005566|
|         803|  1.9598e+00|   -8.700358|  -10.603382|    0.031211|    0.005566|
|         804|  1.9596e+00|   -8.702173|  -10.605110|    0.031211|    0.005565|
|         805|  1.9594e+00|   -8.703992|  -10.606836|    0.031211|    0.005565|
|         806|  1.9593e+00|   -8.705850|  -10.608559|    0.031210|    0.005565|
|         807|  1.9591e+00|   -8.707741|  -10.610280|    0.031210|    0.005565|
|         808|  1.9589e+00|   -8.709631|  -10.611999|    0.031210|    0.005565|
|         809|  1.9587e+00|   -8.711491|  -10.613718|    0.031210|    0.005565|
|         810|  1.9585e+00|   -8.713312|  -10.615435|    0.031210|    0.005565|
|         811|  1.9582e+00|   -8.715121|  -10.617151|    0.031209|    0.005565|
|         812|  1.9581e+00|   -8.716954|  -10.618864|    0.031209|    0.005565|
|         813|  1.9579e+00|   -8.718827|  -10.620575|    0.031209|    0.005565|
[...]
|        1884|  1.9560e+00|  -10.479263|  -12.386176|    0.031054|    0.005520|
|        1885|  1.9560e+00|  -10.480837|  -12.387937|    0.031054|    0.005520|
|        1886|  1.9559e+00|  -10.482393|  -12.389700|    0.031054|    0.005520|
|        1887|  1.9558e+00|  -10.483944|  -12.391463|    0.031054|    0.005520|
|        1888|  1.9557e+00|  -10.485507|  -12.393225|    0.031054|    0.005520|
|        1889|  1.9556e+00|  -10.487090|  -12.394986|    0.031054|    0.005520|
|        1890|  1.9555e+00|  -10.488681|  -12.396747|    0.031054|    0.005520|
|        1891|  1.9554e+00|  -10.490266|  -12.398510|    0.031054|    0.005520|
|        1892|  1.9553e+00|  -10.491832|  -12.400274|    0.031054|    0.005520|
|        1893|  1.9552e+00|  -10.493383|  -12.402039|    0.031054|    0.005520|
|        1894|  1.9551e+00|  -10.494936|  -12.403804|    0.031054|    0.005520|
|        1895|  1.9550e+00|  -10.496503|  -12.405567|    0.031054|    0.005520|
|        1896|  1.9549e+00|  -10.498087|  -12.407331|    0.031054|    0.005520|
|        1897|  1.9548e+00|  -10.499675|  -12.409095|    0.031054|    0.005520|
|        1898|  1.9547e+00|  -10.501250|  -12.410861|    0.031054|    0.005520|
|        1899|  1.9547e+00|  -10.502807|  -12.412629|    0.031054|    0.005520|
|        1900|  1.9546e+00|  -10.504355|  -12.414396|    0.031054|    0.005520|
|        1901|  1.9545e+00|  -10.505909|  -12.416164|    0.031054|    0.005520|
|        1902|  1.9544e+00|  -10.507481|  -12.417930|    0.031054|    0.005520|
|        1903|  1.9544e+00|  -10.509066|  -12.419696|    0.031054|    0.005520|
|        1904|  1.9543e+00|  -10.510650|  -12.421463|    0.031054|    0.005519|
|        1905|  1.9542e+00|  -10.512218|  -12.423231|    0.031054|    0.005519|
|        1906|  1.9541e+00|  -10.513769|  -12.425001|    0.031054|    0.005519|
|        1907|  1.9584e+00|  -10.515315|  -12.426771|    0.031054|    0.005519|
|        1908|  1.9583e+00|  -10.516872|  -12.428540|    0.031054|    0.005519|
|        1909|  1.9582e+00|  -10.518447|  -12.430308|    0.031054|    0.005519|
|        1910|  1.9582e+00|  -10.520031|  -12.432077|    0.031054|    0.005519|
|        1911|  1.9581e+00|  -10.521606|  -12.433847|    0.031054|    0.005519|
|        1912|  1.9580e+00|  -10.523165|  -12.435619|    0.031054|    0.005519|
|        1913|  1.9579e+00|  -10.524709|  -12.437391|    0.031053|    0.005519|
|        1914|  1.9578e+00|  -10.526255|  -12.439163|    0.031053|    0.005519|
|        1915|  1.9577e+00|  -10.527816|  -12.440935|    0.031053|    0.005519|
|        1916|  1.9576e+00|  -10.529394|  -12.442705|    0.031053|    0.005519|
|        1917|  1.9575e+00|  -10.530975|  -12.444477|    0.031053|    0.005519|
|        1918|  1.9574e+00|  -10.532543|  -12.446250|    0.031053|    0.005519|
|        1919|  1.9573e+00|  -10.534094|  -12.448024|    0.031053|    0.005519|
|        1920|  1.9572e+00|  -10.535636|  -12.449798|    0.031053|    0.005519|
|        1921|  1.9572e+00|  -10.537184|  -12.451572|    0.031053|    0.005519|
|        1922|  1.9571e+00|  -10.538749|  -12.453346|    0.031053|    0.005519|
|        1923|  1.9570e+00|  -10.540325|  -12.455119|    0.031053|    0.005519|
|        1924|  1.9569e+00|  -10.541900|  -12.456894|    0.031053|    0.005519|
|        1925|  1.9568e+00|  -10.543458|  -12.458670|    0.031053|    0.005519|
|        1926|  1.9567e+00|  -10.545001|  -12.460447|    0.031053|    0.005519|
|        1927|  1.9566e+00|  -10.546540|  -12.462225|    0.031053|    0.005519|
|        1928|  1.9565e+00|  -10.548091|  -12.464001|    0.031053|    0.005519|
|        1929|  1.9565e+00|  -10.549659|  -12.465777|    0.031053|    0.005519|
|        1930|  1.9564e+00|  -10.551235|  -12.467553|    0.031053|    0.005519|
|        1931|  1.9563e+00|  -10.552802|  -12.469330|    0.031053|    0.005519|
|        1932|  1.9562e+00|  -10.554353|  -12.471109|    0.031053|    0.005519|
|        1933|  1.9561e+00|  -10.555891|  -12.472889|    0.031053|    0.005519|
|        1934|  1.9560e+00|  -10.557431|  -12.474668|    0.031053|    0.005519|
|        1935|  1.9559e+00|  -10.558985|  -12.476446|    0.031053|    0.005519|
|        1936|  1.9558e+00|  -10.560553|  -12.478225|    0.031053|    0.005519|
|        1937|  1.9557e+00|  -10.562124|  -12.480004|    0.031053|    0.005519|
|        1938|  1.9556e+00|  -10.563682|  -12.481785|    0.031053|    0.005519|
|        1939|  1.9555e+00|  -10.565224|  -12.483567|    0.031053|    0.005519|
|        1940|  1.9554e+00|  -10.566757|  -12.485349|    0.031053|    0.005519|
|        1941|  1.9602e+00|  -10.568298|  -12.487131|    0.031053|    0.005519|
|        1942|  1.9601e+00|  -10.569855|  -12.488912|    0.031053|    0.005519|
|        1943|  1.9600e+00|  -10.571424|  -12.490693|    0.031053|    0.005519|
|        1944|  1.9599e+00|  -10.572990|  -12.492475|    0.031053|    0.005519|
|        1945|  1.9598e+00|  -10.574540|  -12.494258|    0.031053|    0.005519|
|        1946|  1.9597e+00|  -10.576075|  -12.496042|    0.031053|    0.005519|
|        1947|  1.9596e+00|  -10.577607|  -12.497827|    0.031052|    0.005519|
|        1948|  1.9596e+00|  -10.579150|  -12.499610|    0.031052|    0.005519|
|        1949|  1.9595e+00|  -10.580709|  -12.501394|    0.031052|    0.005519|
|        1950|  1.9594e+00|  -10.582274|  -12.503177|    0.031052|    0.005519|
|        1951|  1.9593e+00|  -10.583831|  -12.504963|    0.031052|    0.005519|
|        1952|  1.9592e+00|  -10.585371|  -12.506749|    0.031052|    0.005519|
|        1953|  1.9591e+00|  -10.586899|  -12.508536|    0.031052|    0.005519|
|        1954|  1.9590e+00|  -10.588431|  -12.510323|    0.031052|    0.005519|
|        1955|  1.9589e+00|  -10.589978|  -12.512109|    0.031052|    0.005519|
|        1956|  1.9589e+00|  -10.591537|  -12.513895|    0.031052|    0.005519|
|        1957|  1.9588e+00|  -10.593099|  -12.515682|    0.031052|    0.005519|
|        1958|  1.9587e+00|  -10.594647|  -12.517469|    0.031052|    0.005519|
|        1959|  1.9586e+00|  -10.596179|  -12.519259|    0.031052|    0.005519|
|        1960|  1.9585e+00|  -10.597705|  -12.521048|    0.031052|    0.005519|
|        1961|  1.9584e+00|  -10.599238|  -12.522837|    0.031052|    0.005519|
|        1962|  1.9583e+00|  -10.600786|  -12.524625|    0.031052|    0.005519|
|        1963|  1.9583e+00|  -10.602344|  -12.526413|    0.031052|    0.005519|
|        1964|  1.9582e+00|  -10.603897|  -12.528203|    0.031052|    0.005519|
|        1965|  1.9581e+00|  -10.605435|  -12.529994|    0.031052|    0.005519|
|        1966|  1.9580e+00|  -10.606959|  -12.531786|    0.031052|    0.005519|
|        1967|  1.9579e+00|  -10.608483|  -12.533578|    0.031052|    0.005519|
|        1968|  1.9578e+00|  -10.610018|  -12.535369|    0.031052|    0.005519|
|        1969|  1.9577e+00|  -10.611568|  -12.537160|    0.031052|    0.005519|
|        1970|  1.9576e+00|  -10.613123|  -12.538951|    0.031052|    0.005519|
|        1971|  1.9575e+00|  -10.614668|  -12.540744|    0.031052|    0.005519|
|        1972|  1.9575e+00|  -10.616198|  -12.542537|    0.031052|    0.005519|
|        1973|  1.9574e+00|  -10.617717|  -12.544332|    0.031052|    0.005519|
|        1974|  1.9573e+00|  -10.619241|  -12.546126|    0.031052|    0.005519|
|        1975|  1.9619e+00|  -10.620778|  -12.547919|    0.031052|    0.005519|
|        1976|  1.9618e+00|  -10.622327|  -12.549712|    0.031052|    0.005519|
|        1977|  1.9617e+00|  -10.623875|  -12.551506|    0.031052|    0.005519|
|        1978|  1.9617e+00|  -10.625409|  -12.553302|    0.031052|    0.005519|
|        1979|  1.9616e+00|  -10.626930|  -12.555099|    0.031052|    0.005519|
|        1980|  1.9615e+00|  -10.628445|  -12.556896|    0.031052|    0.005519|
|        1981|  1.9614e+00|  -10.629970|  -12.558693|    0.031052|    0.005519|
|        1982|  1.9613e+00|  -10.631509|  -12.560488|    0.031052|    0.005519|
|        1983|  1.9612e+00|  -10.633056|  -12.562284|    0.031052|    0.005519|
|        1984|  1.9612e+00|  -10.634597|  -12.564081|    0.031052|    0.005519|
|        1985|  1.9611e+00|  -10.636123|  -12.565880|    0.031051|    0.005519|
|        1986|  1.9610e+00|  -10.637636|  -12.567679|    0.031051|    0.005519|
|        1987|  1.9609e+00|  -10.639151|  -12.569478|    0.031051|    0.005519|
|        1988|  1.9608e+00|  -10.640677|  -12.571277|    0.031051|    0.005519|
|        1989|  1.9607e+00|  -10.642215|  -12.573075|    0.031051|    0.005519|
|        1990|  1.9606e+00|  -10.643756|  -12.574874|    0.031051|    0.005519|
|        1991|  1.9605e+00|  -10.645287|  -12.576674|    0.031051|    0.005519|
|        1992|  1.9604e+00|  -10.646802|  -12.578475|    0.031051|    0.005519|
|        1993|  1.9603e+00|  -10.648311|  -12.580277|    0.031051|    0.005519|
|        1994|  1.9603e+00|  -10.649825|  -12.582079|    0.031051|    0.005519|
|        1995|  1.9602e+00|  -10.651352|  -12.583880|    0.031051|    0.005519|
|        1996|  1.9601e+00|  -10.652890|  -12.585680|    0.031051|    0.005519|
|        1997|  1.9600e+00|  -10.654425|  -12.587482|    0.031051|    0.005519|
|        1998|  1.9599e+00|  -10.655946|  -12.589285|    0.031051|    0.005519|
|        1999|  1.9598e+00|  -10.657454|  -12.591089|    0.031051|    0.005519|
|        2000|  1.9598e+00|  -10.658960|  -12.592893|    0.031051|    0.005519|
+-----------------------------------------------------------------------+
|        File Writing Summary       |              Filename             |
+-----------------------------------------------------------------------+
|SU2 restart                        |restart_flow.dat                   |
|Paraview                           |flow.vtu                           |
|Paraview surface                   |surface_flow.vtu                   |
+-----------------------------------------------------------------------+
+-----------------------------------------------------------------------------+
|  Inner_Iter|   Time(sec)|    rms[Rho]|     rms[nu]|          CL|          CD|
+-----------------------------------------------------------------------------+
|        2001|  1.9603e+00|  -10.660474|  -12.594696|    0.031051|    0.005519|
|        2002|  1.9602e+00|  -10.662002|  -12.596499|    0.031051|    0.005519|
|        2003|  1.9602e+00|  -10.663535|  -12.598303|    0.031051|    0.005519|
|        2004|  1.9601e+00|  -10.665060|  -12.600107|    0.031051|    0.005519|
|        2005|  1.9600e+00|  -10.666570|  -12.601914|    0.031051|    0.005519|
|        2006|  1.9599e+00|  -10.668071|  -12.603721|    0.031051|    0.005519|
|        2007|  1.9598e+00|  -10.669575|  -12.605527|    0.031051|    0.005519|
|        2008|  1.9646e+00|  -10.671091|  -12.607333|    0.031051|    0.005519|
|        2009|  1.9645e+00|  -10.672618|  -12.609139|    0.031051|    0.005519|
|        2010|  1.9644e+00|  -10.674145|  -12.610945|    0.031051|    0.005519|
|        2011|  1.9643e+00|  -10.675661|  -12.612753|    0.031051|    0.005519|
|        2012|  1.9643e+00|  -10.677164|  -12.614562|    0.031051|    0.005519|
|        2013|  1.9642e+00|  -10.678660|  -12.616371|    0.031051|    0.005519|
|        2014|  1.9641e+00|  -10.680163|  -12.618180|    0.031051|    0.005519|
|        2015|  1.9640e+00|  -10.681679|  -12.619989|    0.031051|    0.005519|
|        2016|  1.9639e+00|  -10.683202|  -12.621797|    0.031051|    0.005519|
|        2017|  1.9638e+00|  -10.684720|  -12.623607|    0.031051|    0.005519|
|        2018|  1.9637e+00|  -10.686225|  -12.625419|    0.031051|    0.005519|
|        2019|  1.9636e+00|  -10.687719|  -12.627231|    0.031051|    0.005519|
|        2020|  1.9635e+00|  -10.689212|  -12.629043|    0.031051|    0.005519|
|        2021|  1.9635e+00|  -10.690716|  -12.630854|    0.031051|    0.005519|
|        2022|  1.9634e+00|  -10.692231|  -12.632665|    0.031051|    0.005519|
|        2023|  1.9633e+00|  -10.693750|  -12.634477|    0.031051|    0.005519|
|        2024|  1.9632e+00|  -10.695259|  -12.636290|    0.031051|    0.005519|
|        2025|  1.9631e+00|  -10.696755|  -12.638104|    0.031051|    0.005519|
|        2026|  1.9630e+00|  -10.698243|  -12.639919|    0.031051|    0.005519|
|        2027|  1.9629e+00|  -10.699734|  -12.641733|    0.031051|    0.005519|
|        2028|  1.9628e+00|  -10.701238|  -12.643547|    0.031051|    0.005519|
|        2029|  1.9628e+00|  -10.702750|  -12.645361|    0.031050|    0.005519|
|        2030|  1.9627e+00|  -10.704260|  -12.647176|    0.031050|    0.005519|
|        2031|  1.9626e+00|  -10.705758|  -12.648992|    0.031050|    0.005519|
|        2032|  1.9625e+00|  -10.707244|  -12.650810|    0.031050|    0.005519|
|        2033|  1.9624e+00|  -10.708727|  -12.652627|    0.031050|    0.005519|
|        2034|  1.9623e+00|  -10.710218|  -12.654444|    0.031050|    0.005519|
|        2035|  1.9622e+00|  -10.711722|  -12.656260|    0.031050|    0.005519|
|        2036|  1.9621e+00|  -10.713230|  -12.658077|    0.031050|    0.005519|
|        2037|  1.9620e+00|  -10.714731|  -12.659895|    0.031050|    0.005519|
|        2038|  1.9620e+00|  -10.716219|  -12.661714|    0.031050|    0.005519|
|        2039|  1.9619e+00|  -10.717698|  -12.663534|    0.031050|    0.005519|
|        2040|  1.9618e+00|  -10.719179|  -12.665353|    0.031050|    0.005519|
|        2041|  1.9617e+00|  -10.720670|  -12.667172|    0.031050|    0.005519|

----------------------------- Solver Exit -------------------------------
All convergence criteria satisfied.
+-----------------------------------------------------------------------+
|      Convergence Field     |     Value    |   Criterion  |  Converged |
+-----------------------------------------------------------------------+
|                  Cauchy[CD]|   9.97205e-07|       < 1e-06|         Yes|
+-----------------------------------------------------------------------+
-------------------------------------------------------------------------
+-----------------------------------------------------------------------+
|        File Writing Summary       |              Filename             |
+-----------------------------------------------------------------------+
|SU2 restart                        |restart_flow.dat                   |
|Paraview                           |flow.vtu                           |
|Paraview surface                   |surface_flow.vtu                   |
+-----------------------------------------------------------------------+

------------------------- Solver Postprocessing -------------------------
Deleted CNumerics container.
Deleted CIntegration container.
Deleted CSolver container.
Deleted CIteration container.
Deleted CInterface container.
Deleted CGeometry container.
Deleted CFreeFormDefBox class.
Deleted CSurfaceMovement class.
Deleted CVolumetricMovement class.
Deleted CConfig container.
Deleted nInst container.
Deleted COutput class.
-------------------------------------------------------------------------

------------------------- Exit Success (SU2_CFD) ------------------------


-------------------------------------------------------------------------
|    ___ _   _ ___                                                      |
|   / __| | | |_  )   Release 7.2.0 "Blackbird"                         |
|   \__ \ |_| |/ /                                                      |
|   |___/\___//___|   Suite (Solution Exporting Code)                   |
|                                                                       |
-------------------------------------------------------------------------
| SU2 Project Website: https://su2code.github.io                        |
|                                                                       |
| The SU2 Project is maintained by the SU2 Foundation                   |
| (http://su2foundation.org)                                            |
-------------------------------------------------------------------------
| Copyright 2012-2021, SU2 Contributors                                 |
|                                                                       |
| SU2 is free software; you can redistribute it and/or                  |
| modify it under the terms of the GNU Lesser General Public            |
| License as published by the Free Software Foundation; either          |
| version 2.1 of the License, or (at your option) any later version.    |
|                                                                       |
| SU2 is distributed in the hope that it will be useful,                |
| but WITHOUT ANY WARRANTY; without even the implied warranty of        |
| MERCHANTABILITY or FITNESS FOR A PARTICULAR PURPOSE. See the GNU      |
| Lesser General Public License for more details.                       |
|                                                                       |
| You should have received a copy of the GNU Lesser General Public      |
| License along with SU2. If not, see <http://www.gnu.org/licenses/>.   |
-------------------------------------------------------------------------

----------------- Physical Case Definition ( Zone 0 ) -------------------
Input mesh file name: ../CurrRun.su2

-------------------- Output Information ( Zone 0 ) ----------------------
The tabular file format is CSV (.csv).
Flow variables file name: flow.

------------- Config File Boundary Information ( Zone 0 ) ---------------
+-----------------------------------------------------------------------+
|                        Marker Type|                        Marker Name|
+-----------------------------------------------------------------------+
|                          Far-field|                                Far|
+-----------------------------------------------------------------------+
|                     Symmetry plane|                                Sym|
+-----------------------------------------------------------------------+
|                     Heat flux wall|                               Rod1|
+-----------------------------------------------------------------------+
Three dimensional problem.
2080172 grid points before partitioning.
3342742 volume elements before partitioning.
3 surface markers.
2048 boundary elements in index 0 (Marker = Far).
88331 boundary elements in index 1 (Marker = Rod1).
39749 boundary elements in index 2 (Marker = Sym).
Executing the partitioning functions.
Building the graph adjacency structure.
Calling ParMETIS... graph partitioning complete (138337 edge cuts).
Distributing ParMETIS coloring.
Rebalancing vertices.
Rebalancing volume element connectivity.
Rebalancing markers and surface elements.
2284981 vertices including ghost points. 
3503792 interior elements including halo cells. 
887803 tetrahedra.
1435108 hexahedra.
888848 prisms.
292033 pyramids.
Establishing MPI communication patterns.
Identify vertices.
Storing a mapping from global to local point index.

------------------------- Solution Postprocessing -----------------------
Reading and storing the solution from restart_flow.
Volume output fields: COORDINATES, SOLUTION
  Info: Ignoring the following screen output fields:
  RMS_DENSITY, RMS_NU_TILDE, LIFT, DRAG
Screen output fields: INNER_ITER, WALL_TIME
  Info: Ignoring the following history output groups:
  RMS_RES
History output group(s): ITER
Ignoring Convergence Field(s): DRAG 
Warning: No (valid) fields chosen for convergence monitoring. Convergence monitoring inactive.
Warning: No (valid) fields chosen for time convergence monitoring. Time convergence monitoring inactive.
|Paraview                           |flow.vtu                           |
|Paraview surface                   |surface_flow.vtu                   |

------------------------- Solver Postprocessing -------------------------
Deleted CGeometry container.
Deleted CSolver class.
Deleted CConfig container.
Deleted COutput class.

Completed in 3.217453 seconds on 32 cores.

------------------------- Exit Success (SU2_SOL) ------------------------

